
     RDKit          3D

 32 35  0  0  0  0  0  0  0  0999 V2000
   94.6020  141.7540  137.1550 P   0  0  0  0  0  0  0  0  0  0  0  0
   95.2550  144.2070  135.5830 C   0  0  0  0  0  0  0  0  0  0  0  0
  101.4640  145.2170  136.0950 O   0  0  0  0  0  0  0  0  0  0  0  0
   94.2920  144.4520  136.7480 C   0  0  2  0  0  0  0  0  0  0  0  0
  106.1580  150.8700  139.7950 O   0  0  0  0  0  0  0  0  0  0  0  0
   94.7340  145.6980  137.5500 C   0  0  0  0  0  0  0  0  0  0  0  0
  106.5620  148.8140  140.3040 O   0  0  0  0  0  0  0  0  0  0  0  0
   96.2300  145.7530  137.9330 C   0  0  2  0  0  0  0  0  0  0  0  0
   94.3000  143.3610  137.6160 O   0  0  0  0  0  0  0  0  0  0  0  0
   97.1200  145.4530  136.7460 C   0  0  2  0  0  0  0  0  0  0  0  0
   94.1320  141.4790  135.7520 O   0  0  0  0  0  0  0  0  0  0  0  0
   96.7270  144.1710  136.1420 C   0  0  0  0  0  0  0  0  0  0  0  0
   93.8430  140.8490  138.0960 O   0  0  0  0  0  0  0  0  0  0  0  0
   96.5700  144.7840  139.0700 C   0  0  0  0  0  0  0  0  0  0  0  0
   96.0790  141.4420  137.2570 O   0  0  0  0  0  0  0  0  0  0  0  0
   98.0090  144.8100  139.4430 C   0  0  0  0  0  0  0  0  0  0  0  0
   98.8780  145.7430  138.5620 C   0  0  2  0  0  0  0  0  0  0  0  0
   98.6670  145.3920  137.1270 C   0  0  2  0  0  0  0  0  0  0  0  0
  100.3250  145.4190  138.7920 C   0  0  1  0  0  0  0  0  0  0  0  0
  101.1680  146.4300  138.0530 C   0  0  2  0  0  0  0  0  0  0  0  0
  100.9060  146.3630  136.5500 C   0  0  2  0  0  0  0  0  0  0  0  0
   99.3940  146.3410  136.2910 C   0  0  0  0  0  0  0  0  0  0  0  0
  100.8170  145.6570  140.2410 C   0  0  0  0  0  0  0  0  0  0  0  0
  102.3700  145.9980  139.9710 C   0  0  0  0  0  0  0  0  0  0  0  0
  102.5370  146.0690  138.4530 C   0  0  2  0  0  0  0  0  0  0  0  0
  103.4970  147.2040  138.0490 C   0  0  1  0  0  0  0  0  0  0  0  0
  104.2780  147.7330  139.2440 C   0  0  0  0  0  0  0  0  0  0  0  0
  104.5300  149.2440  139.0890 C   0  0  0  0  0  0  0  0  0  0  0  0
  104.4800  146.6450  137.0300 C   0  0  0  0  0  0  0  0  0  0  0  0
  100.8000  147.7900  138.6580 C   0  0  0  0  0  0  0  0  0  0  0  0
   96.9400  146.5640  135.7010 C   0  0  0  0  0  0  0  0  0  0  0  0
  105.8250  149.6580  139.7690 C   0  0  0  0  0  0  0  0  0  0  0  0
  1  9  1  0
  1 11  1  0
  1 13  1  0
  1 15  1  0
  2  4  1  0
  2 12  1  0
 21  3  1  1
  4  6  1  0
  4  9  1  1
  5 32  1  0
  8  6  1  6
  7 32  1  0
  8 10  1  0
  8 14  1  0
 10 12  1  0
 10 18  1  0
 10 31  1  6
 14 16  1  0
 17 16  1  1
 17 18  1  0
 17 19  1  0
 18 22  1  6
 19 20  1  0
 19 23  1  1
 20 21  1  0
 20 25  1  0
 20 30  1  1
 21 22  1  0
 23 24  1  0
 25 24  1  1
 25 26  1  0
 26 27  1  0
 26 29  1  6
 27 28  1  0
 28 32  1  0
M  CHG  1  13  -1
M  END
