
     RDKit          3D

 15 17  0  0  0  0  0  0  0  0999 V2000
   98.7212  145.0603  138.5038 C   0  0  0  0  0  0  0  0  0  0  0  0
   96.3453  143.6647  135.4494 O   0  0  0  0  0  0  0  0  0  0  0  0
   98.4737  144.6151  136.1638 C   0  0  0  0  0  0  0  0  0  0  0  0
  102.8390  146.7796  140.1063 C   0  0  0  0  0  0  0  0  0  0  0  0
  101.5664  146.3558  140.3867 C   0  0  0  0  0  0  0  0  0  0  0  0
   99.4645  145.4690  139.6083 C   0  0  0  0  0  0  0  0  0  0  0  0
   97.1928  144.1644  136.3908 C   0  0  0  0  0  0  0  0  0  0  0  0
   96.6816  144.1436  137.6561 C   0  0  0  0  0  0  0  0  0  0  0  0
  103.3172  146.8216  138.8783 N   0  0  0  0  0  0  0  0  0  0  0  0
   97.4570  144.6081  138.6589 C   0  0  0  0  0  0  0  0  0  0  0  0
  100.7453  145.9229  139.3547 C   0  0  0  0  0  0  0  0  0  0  0  0
  100.4774  145.5388  137.0258 N   0  0  0  0  0  0  0  0  0  0  0  0
  102.5112  146.3878  137.8947 C   0  0  0  0  0  0  0  0  0  0  0  0
   99.2262  145.0732  137.2188 C   0  0  0  0  0  0  0  0  0  0  0  0
  101.2355  145.9389  138.0623 C   0  0  0  0  0  0  0  0  0  0  0  0
  1  6  1  0
  1 10  1  0
  1 14  2  0
  2  7  1  0
  3  7  2  0
  3 14  1  0
  4  5  2  0
  4  9  1  0
  5 11  1  0
  6 11  2  0
  7  8  1  0
  8 10  2  0
  9 13  2  0
 11 15  1  0
 12 14  1  0
 12 15  2  0
 13 15  1  0
M  END
$$$$

     RDKit          3D

 17 20  0  0  0  0  0  0  0  0999 V2000
  102.6467  147.4637  139.2370 C   0  0  0  0  0  0  0  0  0  0  0  0
   98.0278  144.7267  137.8893 C   0  0  0  0  0  0  0  0  0  0  0  0
   99.0497  144.8268  135.7686 C   0  0  0  0  0  0  0  0  0  0  0  0
   96.0077  143.3188  136.7507 C   0  0  0  0  0  0  0  0  0  0  0  0
  101.7905  147.1626  140.1551 C   0  0  0  0  0  0  0  0  0  0  0  0
  100.0439  145.7379  137.5785 C   0  0  0  0  0  0  0  0  0  0  0  0
   96.9597  144.3202  138.6229 C   0  0  0  0  0  0  0  0  0  0  0  0
  101.0373  146.3899  138.3202 N   0  0  0  0  0  0  0  0  0  0  0  0
   97.0273  143.7570  136.0099 C   0  0  0  0  0  0  0  0  0  0  0  0
  103.8322  148.1292  139.2428 C   0  0  0  0  0  0  0  0  0  0  0  0
  100.7788  146.4228  139.6095 C   0  0  0  0  0  0  0  0  0  0  0  0
  100.0933  145.5134  136.2475 C   0  0  0  0  0  0  0  0  0  0  0  0
   99.5177  145.9349  139.5771 N   0  0  0  0  0  0  0  0  0  0  0  0
   98.0403  144.4361  136.5391 C   0  0  0  0  0  0  0  0  0  0  0  0
  102.3055  147.0039  138.0858 N   0  0  0  0  0  0  0  0  0  0  0  0
   99.0963  145.3798  138.3839 C   0  0  0  0  0  0  0  0  0  0  0  0
   95.9961  143.6190  138.0517 C   0  0  0  0  0  0  0  0  0  0  0  0
  1  5  4  0
  1 10  1  0
  1 15  4  0
  2  7  4  0
  2 14  4  0
  2 16  4  0
  3 12  4  0
  3 14  4  0
  4  9  4  0
  4 17  4  0
  5 11  4  0
  6  8  4  0
  6 12  4  0
  6 16  4  0
  7 17  4  0
  8 11  4  0
  8 15  4  0
  9 14  4  0
 11 13  4  0
 13 16  4  0
M  END
$$$$

     RDKit          3D

 14 16  0  0  0  0  0  0  0  0999 V2000
  103.2028  147.1694  139.4074 O   0  0  0  0  0  0  0  0  0  0  0  0
   98.1061  145.9234  137.6750 C   0  0  0  0  0  0  0  0  0  0  0  0
   96.1472  143.5162  135.4095 O   0  0  0  0  0  0  0  0  0  0  0  0
   98.1000  145.2767  136.4692 C   0  0  0  0  0  0  0  0  0  0  0  0
   99.0897  144.8759  135.8180 C   0  0  0  0  0  0  0  0  0  0  0  0
  100.4832  145.9479  137.4284 C   0  0  0  0  0  0  0  0  0  0  0  0
   97.7867  144.6928  136.0392 C   0  0  0  0  0  0  0  0  0  0  0  0
  101.9917  146.9845  138.9537 C   0  0  0  0  0  0  0  0  0  0  0  0
  100.9521  147.3123  139.6994 C   0  0  0  0  0  0  0  0  0  0  0  0
  101.7165  146.2710  137.8258 C   0  0  0  0  0  0  0  0  0  0  0  0
   99.4449  146.3274  138.1121 C   0  0  0  0  0  0  0  0  0  0  0  0
   99.6970  147.0059  139.2749 C   0  0  0  0  0  0  0  0  0  0  0  0
  100.2859  145.2797  136.3356 C   0  0  0  0  0  0  0  0  0  0  0  0
   97.3466  144.0841  136.1612 C   0  0  0  0  0  0  0  0  0  0  0  0
  1  8  1  0
  2  4  1  0
  2 11  1  0
  3 14  1  0
  4  5  1  0
  4  7  1  0
  5  7  1  0
  5 13  2  0
  6 10  1  0
  6 11  2  0
  6 13  1  0
  7 14  1  0
  8  9  1  0
  8 10  2  0
  9 12  2  0
 11 12  1  0
M  END
$$$$

     RDKit          3D

 13 14  0  0  0  0  0  0  0  0999 V2000
  103.0575  147.2310  140.2163 F   0  0  0  0  0  0  0  0  0  0  0  0
   99.7564  145.5084  138.4915 C   0  0  0  0  0  0  0  0  0  0  0  0
   97.4849  144.7314  138.5632 C   0  0  0  0  0  0  0  0  0  0  0  0
   98.6520  144.9197  137.8811 C   0  0  0  0  0  0  0  0  0  0  0  0
   96.4067  144.1434  137.9383 C   0  0  0  0  0  0  0  0  0  0  0  0
  101.1244  145.9732  140.4682 C   0  0  0  0  0  0  0  0  0  0  0  0
  101.7615  146.8190  138.3418 C   0  0  0  0  0  0  0  0  0  0  0  0
  100.6555  146.2431  137.7628 C   0  0  0  0  0  0  0  0  0  0  0  0
   96.4496  143.7545  136.6894 N   0  0  0  0  0  0  0  0  0  0  0  0
  100.0184  145.3940  139.8618 C   0  0  0  0  0  0  0  0  0  0  0  0
   98.6934  144.4937  136.5674 C   0  0  0  0  0  0  0  0  0  0  0  0
  102.0015  146.6920  139.6838 C   0  0  0  0  0  0  0  0  0  0  0  0
   97.5590  143.9248  136.0106 C   0  0  0  0  0  0  0  0  0  0  0  0
  1 12  1  0
  2  4  1  0
  2  8  2  0
  2 10  1  0
  3  4  2  0
  3  5  1  0
  4 11  1  0
  5  9  2  0
  6 10  2  0
  6 12  1  0
  7  8  1  0
  7 12  2  0
  9 13  1  0
 11 13  2  0
M  END
$$$$

     RDKit          3D

 13 14  0  0  0  0  0  0  0  0999 V2000
  100.3844  146.9729  139.2973 C   0  0  0  0  0  0  0  0  0  0  0  0
   96.2180  143.6224  135.7849 O   0  0  0  0  0  0  0  0  0  0  0  0
   97.2866  144.2826  136.2512 C   0  0  0  0  0  0  0  0  0  0  0  0
   98.2688  144.9631  135.4482 C   0  0  0  0  0  0  0  0  0  0  0  0
   97.4146  144.3286  137.6210 C   0  0  0  0  0  0  0  0  0  0  0  0
   99.3273  145.5931  136.0553 C   0  0  0  0  0  0  0  0  0  0  0  0
  103.0170  146.7732  138.2168 C   0  0  0  0  0  0  0  0  0  0  0  0
   98.5127  145.0137  138.2236 C   0  0  0  0  0  0  0  0  0  0  0  0
  102.8053  147.4664  139.4421 C   0  0  0  0  0  0  0  0  0  0  0  0
  101.5040  147.6125  139.9405 C   0  0  0  0  0  0  0  0  0  0  0  0
   99.4558  145.6323  137.4447 C   0  0  0  0  0  0  0  0  0  0  0  0
  100.5562  146.3138  138.0930 C   0  0  0  0  0  0  0  0  0  0  0  0
  101.8697  146.1939  137.6004 C   0  0  0  0  0  0  0  0  0  0  0  0
  1 10  2  0
  1 12  1  0
  2  3  1  0
  3  4  2  0
  3  5  1  0
  4  6  1  0
  5  8  2  0
  6 11  2  0
  7  9  2  0
  7 13  1  0
  8 11  1  0
  9 10  1  0
 11 12  1  0
 12 13  2  0
M  END
$$$$

     RDKit          3D

 30 35  0  0  0  0  0  0  0  0999 V2000
  100.1378  147.1201  140.1603 O   0  0  0  0  0  0  0  0  0  0  0  0
  100.8194  144.5596  140.8248 C   0  0  0  0  0  0  0  0  0  0  0  0
  100.8559  143.6230  142.9874 C   0  0  0  0  0  0  0  0  0  0  0  0
   98.3750  144.7344  137.0020 C   0  0  0  0  0  0  0  0  0  0  0  0
   99.0102  145.0749  138.2211 C   0  0  0  0  0  0  0  0  0  0  0  0
   97.3196  144.1031  139.4581 C   0  0  0  0  0  0  0  0  0  0  0  0
   96.5706  143.8893  138.3279 C   0  0  0  0  0  0  0  0  0  0  0  0
   96.9640  143.3972  145.8149 C   0  0  0  0  0  0  0  0  0  0  0  0
   98.6017  144.5809  139.4789 C   0  0  0  0  0  0  0  0  0  0  0  0
  101.7337  145.3503  139.9678 C   0  0  0  0  0  0  0  0  0  0  0  0
  101.4674  144.1624  141.9214 N   0  0  0  0  0  0  0  0  0  0  0  0
  102.9512  147.4242  139.8196 C   0  0  0  0  0  0  0  0  0  0  0  0
   99.5422  143.9018  143.1293 C   0  0  0  0  0  0  0  0  0  0  0  0
   99.1415  143.4231  146.8188 C   0  0  0  0  0  0  0  0  0  0  0  0
  101.0127  146.4346  139.1375 C   0  0  0  0  0  0  0  0  0  0  0  0
  102.1043  147.3830  138.7535 C   0  0  0  0  0  0  0  0  0  0  0  0
   99.4449  144.4897  140.7570 C   0  0  0  0  0  0  0  0  0  0  0  0
   98.7785  147.4997  139.8562 C   0  0  0  0  0  0  0  0  0  0  0  0
   99.0154  144.9739  135.7767 C   0  0  0  0  0  0  0  0  0  0  0  0
   98.9397  143.6686  144.4338 C   0  0  0  0  0  0  0  0  0  0  0  0
  100.2725  145.7239  138.0197 C   0  0  0  0  0  0  0  0  0  0  0  0
   99.7205  143.6142  145.5808 C   0  0  0  0  0  0  0  0  0  0  0  0
   98.6914  144.1794  141.9779 C   0  0  0  0  0  0  0  0  0  0  0  0
   97.0881  144.1999  137.0822 C   0  0  0  0  0  0  0  0  0  0  0  0
  100.3198  145.5910  135.7857 C   0  0  0  0  0  0  0  0  0  0  0  0
  102.6536  146.1777  140.7675 C   0  0  0  0  0  0  0  0  0  0  0  0
   97.7676  143.3284  146.9602 C   0  0  0  0  0  0  0  0  0  0  0  0
  100.8347  145.9288  136.8332 C   0  0  0  0  0  0  0  0  0  0  0  0
   97.5532  143.5830  144.5606 C   0  0  0  0  0  0  0  0  0  0  0  0
   96.4484  144.0109  136.1606 O   0  0  0  0  0  0  0  0  0  0  0  0
  1 15  1  0
  1 18  1  0
  2 10  1  0
  2 11  2  0
  2 17  1  0
  3 11  1  0
  3 13  1  0
  4  5  4  0
  4 19  4  0
  4 24  4  0
  5  9  1  0
  5 21  4  0
  6  7  4  0
  6  9  4  0
  7 24  4  0
  8 27  4  0
  8 29  4  0
  9 17  1  0
 10 15  1  0
 10 26  1  0
 12 16  1  0
 12 26  1  0
 13 20  1  0
 13 23  1  0
 14 22  4  0
 14 27  4  0
 15 16  1  0
 15 21  1  0
 17 23  1  0
 19 25  4  0
 20 22  4  0
 20 29  4  0
 21 28  4  0
 24 30  2  0
 25 28  4  0
M  END
$$$$

     RDKit          3D

 13 14  0  0  0  0  0  0  0  0999 V2000
   98.1164  144.6829  136.4493 C   0  0  0  0  0  0  0  0  0  0  0  0
   96.1492  144.7269  136.3995 N   0  0  0  0  0  0  0  0  0  0  0  0
   97.8450  143.6864  135.8963 N   0  0  0  0  0  0  0  0  0  0  0  0
   99.6153  145.7132  137.9841 C   0  0  0  0  0  0  0  0  0  0  0  0
  101.1014  146.0067  139.9382 C   0  0  0  0  0  0  0  0  0  0  0  0
   96.5534  143.7441  135.8637 C   0  0  0  0  0  0  0  0  0  0  0  0
  101.9294  146.3689  137.7552 C   0  0  0  0  0  0  0  0  0  0  0  0
   99.5239  145.0954  136.8326 C   0  0  0  0  0  0  0  0  0  0  0  0
  100.8628  146.0309  138.5649 C   0  0  0  0  0  0  0  0  0  0  0  0
   97.0928  145.3669  136.7763 N   0  0  0  0  0  0  0  0  0  0  0  0
  103.3740  146.6321  139.6562 C   0  0  0  0  0  0  0  0  0  0  0  0
  102.3648  146.3109  140.5129 C   0  0  0  0  0  0  0  0  0  0  0  0
  103.1647  146.6667  138.2931 C   0  0  0  0  0  0  0  0  0  0  0  0
  1  3  2  0
  1  8  1  0
  1 10  1  0
  2  6  2  0
  2 10  1  0
  3  6  1  0
  4  8  2  3
  4  9  1  0
  5  9  2  0
  5 12  1  0
  7  9  1  0
  7 13  2  0
 11 12  2  0
 11 13  1  0
M  END
$$$$

     RDKit          3D

 13 14  0  0  0  0  0  0  0  0999 V2000
   96.7909  144.2623  137.3656 N   0  0  0  0  0  0  0  0  0  0  0  0
   99.8480  147.0020  138.9367 C   0  0  0  0  0  0  0  0  0  0  0  0
  101.0962  145.6444  137.4937 C   0  0  0  0  0  0  0  0  0  0  0  0
  102.2340  146.1174  138.0040 C   0  0  0  0  0  0  0  0  0  0  0  0
   98.0618  145.4483  136.1553 C   0  0  0  0  0  0  0  0  0  0  0  0
  101.0355  147.5133  139.4820 C   0  0  0  0  0  0  0  0  0  0  0  0
   97.7792  144.6637  138.1465 C   0  0  0  0  0  0  0  0  0  0  0  0
   96.1418  144.5341  135.2330 N   0  0  0  0  0  0  0  0  0  0  0  0
   96.9747  144.7297  136.1295 N   0  0  0  0  0  0  0  0  0  0  0  0
   98.6196  145.4614  137.4075 C   0  0  0  0  0  0  0  0  0  0  0  0
   99.8431  146.0242  137.9050 C   0  0  0  0  0  0  0  0  0  0  0  0
  102.2511  147.0363  138.9890 C   0  0  0  0  0  0  0  0  0  0  0  0
  103.4600  147.4474  139.4497 N   0  0  0  0  0  0  0  0  0  0  0  0
  1  7  2  0
  1  9  1  0
  2  6  2  0
  2 11  1  0
  3  4  1  0
  3 11  2  0
  4 12  2  0
  5  9  1  0
  5 10  2  0
  6 12  1  0
  7 10  1  0
  8  9  1  0
 10 11  1  0
 12 13  1  0
M  END
$$$$

     RDKit          3D

 25 29  0  0  0  0  0  0  0  0999 V2000
  100.1221  144.9323  140.4771 C   0  0  0  0  0  0  0  0  0  0  0  0
   98.1891  144.7531  135.8302 C   0  0  0  0  0  0  0  0  0  0  0  0
   95.2665  144.0799  137.9453 C   0  0  0  0  0  0  0  0  0  0  0  0
  103.8788  148.5122  138.9254 N   0  0  0  0  0  0  0  0  0  0  0  0
  101.1933  146.3738  137.3534 C   0  0  0  0  0  0  0  0  0  0  0  0
  101.2808  145.3143  141.2061 C   0  0  0  0  0  0  0  0  0  0  0  0
   99.6505  143.3780  142.2493 C   0  0  0  0  0  0  0  0  0  0  0  0
  101.9748  146.7958  139.4339 C   0  0  0  0  0  0  0  0  0  0  0  0
  100.8337  146.4828  138.6492 C   0  0  0  0  0  0  0  0  0  0  0  0
   94.9211  143.3056  136.7143 C   0  0  0  0  0  0  0  0  0  0  0  0
  100.6956  145.7654  135.1498 O   0  0  0  0  0  0  0  0  0  0  0  0
   99.0845  145.2058  136.8196 C   0  0  0  0  0  0  0  0  0  0  0  0
   98.8393  145.2281  138.2598 C   0  0  0  0  0  0  0  0  0  0  0  0
   96.6135  144.6357  137.6854 C   0  0  0  0  0  0  0  0  0  0  0  0
   95.8545  143.8102  135.6395 C   0  0  0  0  0  0  0  0  0  0  0  0
  100.2863  145.8457  136.3595 C   0  0  0  0  0  0  0  0  0  0  0  0
   97.5027  145.2353  138.7263 C   0  0  0  0  0  0  0  0  0  0  0  0
  102.1873  146.2723  140.6751 C   0  0  0  0  0  0  0  0  0  0  0  0
  102.9907  147.6873  139.1149 C   0  0  0  0  0  0  0  0  0  0  0  0
   99.9547  145.4780  139.0732 C   0  0  0  0  0  0  0  0  0  0  0  0
   99.3392  143.9124  141.0399 C   0  0  0  0  0  0  0  0  0  0  0  0
   97.1198  145.6162  139.7933 O   0  0  0  0  0  0  0  0  0  0  0  0
   96.9639  144.4752  136.3651 C   0  0  0  0  0  0  0  0  0  0  0  0
  100.7528  143.7761  142.9110 C   0  0  0  0  0  0  0  0  0  0  0  0
  101.5519  144.7225  142.4030 C   0  0  0  0  0  0  0  0  0  0  0  0
  1  6  1  0
  1 20  2  0
  1 21  1  0
  2 12  1  0
  2 23  1  0
  3 10  2  0
  3 14  1  0
  4 19  3  0
  5  9  1  0
  5 16  1  0
  6 18  2  0
  6 25  1  0
  7 21  2  0
  7 24  1  0
  8  9  2  0
  8 18  1  0
  8 19  1  0
  9 20  1  0
 10 15  1  0
 11 16  1  0
 12 13  1  0
 12 16  2  0
 13 17  1  0
 13 20  1  0
 14 17  1  0
 14 23  2  0
 15 23  1  0
 17 22  2  0
 24 25  2  0
M  END
$$$$

     RDKit          3D

 17 19  0  0  0  0  0  0  0  0999 V2000
   98.9277  145.1177  138.6821 C   0  0  0  0  0  0  0  0  0  0  0  0
   97.9266  144.5852  137.9142 C   0  0  0  0  0  0  0  0  0  0  0  0
  100.4414  145.0300  140.6505 O   0  0  0  0  0  0  0  0  0  0  0  0
  102.4952  146.4025  140.7856 C   0  0  0  0  0  0  0  0  0  0  0  0
   96.7435  144.0920  138.5308 C   0  0  0  0  0  0  0  0  0  0  0  0
  103.3613  147.1717  140.1585 N   0  0  0  0  0  0  0  0  0  0  0  0
  100.1534  145.5153  136.6984 C   0  0  0  0  0  0  0  0  0  0  0  0
  100.0338  145.6109  138.0562 C   0  0  0  0  0  0  0  0  0  0  0  0
   98.0599  144.5311  136.5365 C   0  0  0  0  0  0  0  0  0  0  0  0
  101.4083  145.8785  140.1271 C   0  0  0  0  0  0  0  0  0  0  0  0
  103.2003  147.4510  138.8797 C   0  0  0  0  0  0  0  0  0  0  0  0
   99.1670  144.9756  135.9348 C   0  0  0  0  0  0  0  0  0  0  0  0
   95.7620  143.5430  137.6475 C   0  0  0  0  0  0  0  0  0  0  0  0
  101.2950  146.1819  138.7500 C   0  0  0  0  0  0  0  0  0  0  0  0
   97.0837  143.9776  135.7110 C   0  0  0  0  0  0  0  0  0  0  0  0
  102.2026  147.0063  138.1491 C   0  0  0  0  0  0  0  0  0  0  0  0
   95.9316  143.4731  136.2670 N   0  0  0  0  0  0  0  0  0  0  0  0
  1  2  2  0
  1  8  1  0
  2  5  1  0
  2  9  1  0
  3 10  1  0
  4  6  2  0
  4 10  1  0
  5 13  2  0
  6 11  1  0
  7  8  2  0
  7 12  1  0
  8 14  1  0
  9 12  2  0
  9 15  1  0
 10 14  2  0
 11 16  2  0
 13 17  1  0
 14 16  1  0
 15 17  2  0
M  END
$$$$

     RDKit          3D

 14 15  0  0  0  0  0  0  0  0999 V2000
   97.6351  145.5400  135.4796 C   0  0  0  0  0  0  0  0  0  0  0  0
   98.0304  144.5491  137.9404 C   0  0  0  0  0  0  0  0  0  0  0  0
   95.7567  144.2959  135.2545 O   0  0  0  0  0  0  0  0  0  0  0  0
  101.2281  145.9953  137.3830 C   0  0  0  0  0  0  0  0  0  0  0  0
   98.7339  145.9151  136.1714 C   0  0  0  0  0  0  0  0  0  0  0  0
  102.3430  146.3129  137.8265 N   0  0  0  0  0  0  0  0  0  0  0  0
  101.2793  146.4646  140.0145 N   0  0  0  0  0  0  0  0  0  0  0  0
   96.9743  144.1696  137.2596 C   0  0  0  0  0  0  0  0  0  0  0  0
  102.3588  146.5939  139.3174 C   0  0  0  0  0  0  0  0  0  0  0  0
  103.5021  146.9363  139.8814 N   0  0  0  0  0  0  0  0  0  0  0  0
  100.0430  145.7990  138.0664 C   0  0  0  0  0  0  0  0  0  0  0  0
  100.1455  146.1086  139.3973 C   0  0  0  0  0  0  0  0  0  0  0  0
   98.9304  145.4239  137.4150 C   0  0  0  0  0  0  0  0  0  0  0  0
   96.7753  144.6630  136.0020 C   0  0  0  0  0  0  0  0  0  0  0  0
  1  5  2  0
  1 14  1  0
  2  8  1  0
  2 13  2  0
  3 14  1  0
  4  6  2  0
  4 11  1  0
  5 13  1  0
  6  9  1  0
  7  9  2  0
  7 12  1  0
  8 14  2  0
  9 10  1  0
 11 12  2  0
 11 13  1  0
M  END
$$$$

     RDKit          3D

 13 14  0  0  0  0  0  0  0  0999 V2000
   99.7653  146.0021  137.8572 C   0  0  0  0  0  0  0  0  0  0  0  0
   99.8296  146.6255  139.0996 C   0  0  0  0  0  0  0  0  0  0  0  0
  102.2446  146.8508  138.7038 C   0  0  0  0  0  0  0  0  0  0  0  0
  102.1556  146.2468  137.4929 N   0  0  0  0  0  0  0  0  0  0  0  0
   98.5343  145.4819  137.3167 C   0  0  0  0  0  0  0  0  0  0  0  0
  101.1324  147.0801  139.5669 C   0  0  0  0  0  0  0  0  0  0  0  0
   97.0520  145.2649  135.3826 C   0  0  0  0  0  0  0  0  0  0  0  0
   96.5517  144.1470  137.5182 C   0  0  0  0  0  0  0  0  0  0  0  0
   97.7296  144.6594  138.0839 C   0  0  0  0  0  0  0  0  0  0  0  0
   98.2229  145.7546  135.9851 C   0  0  0  0  0  0  0  0  0  0  0  0
   96.2149  144.4451  136.1731 C   0  0  0  0  0  0  0  0  0  0  0  0
  100.8951  145.8409  137.1066 C   0  0  0  0  0  0  0  0  0  0  0  0
  103.5320  147.2581  139.1207 N   0  0  0  0  0  0  0  0  0  0  0  0
  1  2  2  0
  1  5  1  0
  1 12  1  0
  2  6  1  0
  3  4  1  0
  3  6  2  0
  3 13  1  0
  4 12  2  0
  5  9  2  0
  5 10  1  0
  7 10  2  0
  7 11  1  0
  8  9  1  0
  8 11  2  0
M  END
$$$$

     RDKit          3D

 24 28  0  0  0  0  0  0  0  0999 V2000
   98.3351  145.0647  139.7833 C   0  0  0  0  0  0  0  0  0  0  0  0
  100.9829  144.3124  142.6583 C   0  0  0  0  0  0  0  0  0  0  0  0
  102.9768  147.7479  138.3447 C   0  0  0  0  0  0  0  0  0  0  0  0
   96.3276  143.9708  139.3083 O   0  0  0  0  0  0  0  0  0  0  0  0
  102.6030  146.9277  140.2624 C   0  0  0  0  0  0  0  0  0  0  0  0
  101.8668  147.1722  137.7051 C   0  0  0  0  0  0  0  0  0  0  0  0
   98.8682  145.2558  135.3565 C   0  0  0  0  0  0  0  0  0  0  0  0
  100.8618  145.4068  140.7239 C   0  0  0  0  0  0  0  0  0  0  0  0
   99.9248  145.6312  137.7323 C   0  0  0  0  0  0  0  0  0  0  0  0
   98.6654  145.0386  138.2678 C   0  0  0  0  0  0  0  0  0  0  0  0
  101.0292  146.3433  138.4696 C   0  0  0  0  0  0  0  0  0  0  0  0
   97.6316  144.6199  137.3705 C   0  0  0  0  0  0  0  0  0  0  0  0
   96.4566  144.0078  137.9816 C   0  0  0  0  0  0  0  0  0  0  0  0
   97.7035  144.6508  135.9664 C   0  0  0  0  0  0  0  0  0  0  0  0
   99.8467  143.7055  142.7652 C   0  0  0  0  0  0  0  0  0  0  0  0
   99.0677  143.9400  141.7505 C   0  0  0  0  0  0  0  0  0  0  0  0
  103.3545  147.7076  139.5364 N   0  0  0  0  0  0  0  0  0  0  0  0
   96.6241  144.1924  135.1931 C   0  0  0  0  0  0  0  0  0  0  0  0
   99.5059  144.6999  140.7192 C   0  0  0  0  0  0  0  0  0  0  0  0
   95.5062  143.6327  135.8227 C   0  0  0  0  0  0  0  0  0  0  0  0
   99.8760  145.6794  136.2455 C   0  0  0  0  0  0  0  0  0  0  0  0
  101.6378  145.1030  141.8959 N   0  0  0  0  0  0  0  0  0  0  0  0
   95.4487  143.5795  137.1950 C   0  0  0  0  0  0  0  0  0  0  0  0
  101.4854  146.1618  139.8438 C   0  0  0  0  0  0  0  0  0  0  0  0
  1 10  1  0
  1 19  1  0
  2 15  1  0
  2 22  2  0
  3  6  1  0
  3 17  2  0
  4 13  1  0
  5 17  1  0
  5 24  2  0
  6 11  2  0
  7 14  1  0
  7 21  2  0
  8 19  2  0
  8 22  1  0
  8 24  1  0
  9 10  1  0
  9 11  1  0
  9 21  1  0
 10 12  1  0
 11 24  1  0
 12 13  2  0
 12 14  1  0
 13 23  1  0
 14 18  2  0
 15 16  2  0
 16 19  1  0
 18 20  1  0
 20 23  2  0
M  END
$$$$

     RDKit          3D

 23 26  0  0  0  0  0  0  0  0999 V2000
  102.6920  147.3989  138.9566 C   0  0  0  0  0  0  0  0  0  0  0  0
  101.6077  146.1860  140.5558 C   0  0  0  0  0  0  0  0  0  0  0  0
  103.6989  148.2645  138.7677 C   0  0  0  0  0  0  0  0  0  0  0  0
  100.9636  145.6513  135.6019 O   0  0  0  0  0  0  0  0  0  0  0  0
  102.5906  146.9261  140.3201 C   0  0  0  0  0  0  0  0  0  0  0  0
   98.4996  145.0265  138.1334 C   0  0  0  0  0  0  0  0  0  0  0  0
  100.5478  145.9232  139.8608 C   0  0  0  0  0  0  0  0  0  0  0  0
   96.2854  144.2012  138.0167 C   0  0  0  0  0  0  0  0  0  0  0  0
   96.6023  143.6512  135.3820 C   0  0  0  0  0  0  0  0  0  0  0  0
  101.7914  146.9117  137.9835 C   0  0  0  0  0  0  0  0  0  0  0  0
   95.4583  143.3668  135.9694 C   0  0  0  0  0  0  0  0  0  0  0  0
  100.0950  145.2080  136.3540 C   0  0  0  0  0  0  0  0  0  0  0  0
   99.3058  145.6917  140.3538 C   0  0  0  0  0  0  0  0  0  0  0  0
   95.2864  143.6474  137.3241 C   0  0  0  0  0  0  0  0  0  0  0  0
   98.2469  145.2259  139.4434 C   0  0  0  0  0  0  0  0  0  0  0  0
  101.8885  144.6881  141.6750 O   0  0  0  0  0  0  0  0  0  0  0  0
   97.4712  144.4925  137.3953 C   0  0  0  0  0  0  0  0  0  0  0  0
   99.7553  145.4815  137.6561 C   0  0  0  0  0  0  0  0  0  0  0  0
  101.8844  145.6490  141.5553 C   0  0  0  0  0  0  0  0  0  0  0  0
   97.0868  144.9529  140.0073 C   0  0  0  0  0  0  0  0  0  0  0  0
  100.7355  146.1158  138.4714 C   0  0  0  0  0  0  0  0  0  0  0  0
   97.6263  144.2042  136.0667 C   0  0  0  0  0  0  0  0  0  0  0  0
   96.0958  144.4460  139.2882 C   0  0  0  0  0  0  0  0  0  0  0  0
  1  3  1  0
  1  5  2  0
  1 10  1  0
  2  5  1  0
  2  7  2  0
  2 19  1  0
  4 12  2  0
  6 15  2  0
  6 17  1  0
  6 18  1  0
  7 13  1  0
  7 21  1  0
  8 14  1  0
  8 17  2  0
  8 23  1  0
  9 11  1  0
  9 22  2  0
 10 21  1  0
 11 14  2  0
 12 18  1  0
 13 15  1  0
 15 20  1  0
 16 19  2  0
 17 22  1  0
 18 21  2  0
 20 23  2  0
M  END
$$$$

     RDKit          3D

 23 27  0  0  0  0  0  0  0  0999 V2000
  103.2354  147.0515  139.1020 C   0  0  0  0  0  0  0  0  0  0  0  0
   99.4052  145.5483  139.5485 C   0  0  0  0  0  0  0  0  0  0  0  0
  102.4083  146.8661  138.1027 N   0  0  0  0  0  0  0  0  0  0  0  0
   98.4281  144.8733  136.1475 C   0  0  0  0  0  0  0  0  0  0  0  0
   97.6012  144.4371  138.8010 C   0  0  0  0  0  0  0  0  0  0  0  0
   97.2465  144.1425  136.4310 C   0  0  0  0  0  0  0  0  0  0  0  0
   98.8356  145.0350  138.5403 C   0  0  0  0  0  0  0  0  0  0  0  0
   96.4715  143.5943  135.4325 C   0  0  0  0  0  0  0  0  0  0  0  0
  102.9271  146.5448  140.3623 C   0  0  0  0  0  0  0  0  0  0  0  0
  101.6621  146.0023  140.5999 C   0  0  0  0  0  0  0  0  0  0  0  0
   99.2015  145.3688  137.2022 C   0  0  0  0  0  0  0  0  0  0  0  0
  100.8087  145.8099  139.4433 C   0  0  0  0  0  0  0  0  0  0  0  0
   96.8709  143.9784  137.7146 C   0  0  0  0  0  0  0  0  0  0  0  0
  101.2119  146.2483  138.1944 C   0  0  0  0  0  0  0  0  0  0  0  0
   98.7430  146.8697  139.6249 C   0  0  0  0  0  0  0  0  0  0  0  0
   97.3485  144.4700  140.2650 C   0  0  0  0  0  0  0  0  0  0  0  0
  100.4862  146.0233  137.0887 N   0  0  0  0  0  0  0  0  0  0  0  0
   95.7157  143.2478  138.0667 C   0  0  0  0  0  0  0  0  0  0  0  0
  104.3960  147.6770  138.9320 N   0  0  0  0  0  0  0  0  0  0  0  0
   95.2920  142.9237  135.6787 C   0  0  0  0  0  0  0  0  0  0  0  0
  101.4538  145.6070  141.6591 O   0  0  0  0  0  0  0  0  0  0  0  0
   94.9292  142.6734  136.9926 C   0  0  0  0  0  0  0  0  0  0  0  0
   98.7783  144.9745  140.9091 C   0  0  0  0  0  0  0  0  0  0  0  0
  1  3  1  0
  1  9  2  0
  1 19  1  0
  2  7  1  0
  2 12  1  0
  2 15  1  0
  2 23  1  0
  3 14  2  0
  4  6  1  0
  4 11  2  0
  5  7  2  0
  5 13  1  0
  5 16  1  0
  6  8  1  0
  6 13  2  0
  7 11  1  0
  8 20  2  0
  9 10  1  0
 10 12  1  0
 10 21  2  0
 11 17  1  0
 12 14  1  0
 13 18  1  0
 14 17  1  0
 16 23  1  0
 18 22  2  0
 20 22  1  0
M  END
$$$$

     RDKit          3D

 13 14  0  0  0  0  0  0  0  0999 V2000
   98.9453  144.6422  136.1096 S   0  0  0  0  0  0  0  0  0  0  0  0
  103.5606  147.1647  139.3862 Cl  0  0  0  0  0  0  0  0  0  0  0  0
  100.4637  145.6575  136.8331 C   0  0  0  0  0  0  0  0  0  0  0  0
  101.8024  146.0515  137.4691 C   0  0  0  0  0  0  0  0  0  0  0  0
   97.3661  144.6191  137.4713 C   0  0  0  0  0  0  0  0  0  0  0  0
  100.8437  146.4979  139.3979 C   0  0  0  0  0  0  0  0  0  0  0  0
   97.7573  144.2378  136.4232 C   0  0  0  0  0  0  0  0  0  0  0  0
  102.0310  146.5546  138.7440 C   0  0  0  0  0  0  0  0  0  0  0  0
   99.2518  145.4946  137.9120 C   0  0  0  0  0  0  0  0  0  0  0  0
   99.8562  145.3086  136.8998 C   0  0  0  0  0  0  0  0  0  0  0  0
   96.9079  143.5426  135.6704 O   0  0  0  0  0  0  0  0  0  0  0  0
   98.1177  145.2992  138.2357 C   0  0  0  0  0  0  0  0  0  0  0  0
   99.7384  146.0989  138.7889 C   0  0  0  0  0  0  0  0  0  0  0  0
  1  7  4  0
  1 10  4  0
  2  8  1  0
  3  4  1  0
  3 10  1  0
  4  8  4  0
  5  7  4  0
  5 12  4  0
  6  8  4  0
  6 13  4  0
  7 11  1  0
  9 10  4  0
  9 12  4  0
  9 13  1  0
M  END
$$$$

     RDKit          3D

 11 11  0  0  0  0  0  0  0  0999 V2000
   98.0900  144.5237  135.9959 C   0  0  0  0  0  0  0  0  0  0  0  0
   96.6387  143.5846  135.6907 O   0  0  0  0  0  0  0  0  0  0  0  0
   99.5540  145.6925  137.5359 C   0  0  0  0  0  0  0  0  0  0  0  0
  100.7385  145.7781  136.8851 C   0  0  0  0  0  0  0  0  0  0  0  0
  100.6425  146.2711  139.5232 C   0  0  0  0  0  0  0  0  0  0  0  0
   96.9835  144.4081  135.8511 N   0  0  0  0  0  0  0  0  0  0  0  0
  101.8637  146.3099  138.8888 C   0  0  0  0  0  0  0  0  0  0  0  0
   99.4575  145.9791  138.8805 C   0  0  0  0  0  0  0  0  0  0  0  0
   98.3868  145.3915  136.9745 C   0  0  0  0  0  0  0  0  0  0  0  0
  102.9599  146.6986  139.6908 O   0  0  0  0  0  0  0  0  0  0  0  0
  101.8374  146.0823  137.5442 C   0  0  0  0  0  0  0  0  0  0  0  0
  1  6  1  0
  1  9  1  0
  2  6  1  0
  3  4  2  0
  3  8  1  0
  3  9  1  0
  4 11  1  0
  5  7  1  0
  5  8  2  0
  7 10  1  0
  7 11  2  0
M  END
$$$$

     RDKit          3D

 12 13  0  0  0  0  0  0  0  0999 V2000
  101.8659  146.4108  137.7533 C   0  0  0  0  0  0  0  0  0  0  0  0
   98.5044  145.1233  137.1895 C   0  0  0  0  0  0  0  0  0  0  0  0
  100.7819  145.8783  137.1056 C   0  0  0  0  0  0  0  0  0  0  0  0
  100.5873  146.5701  139.7681 C   0  0  0  0  0  0  0  0  0  0  0  0
   99.5956  145.6886  137.7913 C   0  0  0  0  0  0  0  0  0  0  0  0
  103.2172  147.3969  139.8400 Cl  0  0  0  0  0  0  0  0  0  0  0  0
   96.6862  144.1009  136.9352 N   0  0  0  0  0  0  0  0  0  0  0  0
   98.1913  145.1254  135.7937 C   0  0  0  0  0  0  0  0  0  0  0  0
   99.4897  146.0436  139.1146 C   0  0  0  0  0  0  0  0  0  0  0  0
   97.5488  144.4710  137.8330 N   0  0  0  0  0  0  0  0  0  0  0  0
  101.7869  146.7491  139.0730 C   0  0  0  0  0  0  0  0  0  0  0  0
   97.0069  144.4689  135.6795 C   0  0  0  0  0  0  0  0  0  0  0  0
  1  3  2  0
  1 11  1  0
  2  5  1  0
  2  8  2  0
  2 10  1  0
  3  5  1  0
  4  9  1  0
  4 11  2  0
  5  9  2  0
  6 11  1  0
  7 10  1  0
  7 12  2  0
  8 12  1  0
M  END
$$$$

     RDKit          3D

 13 14  0  0  0  0  0  0  0  0999 V2000
   99.1025  144.6336  136.0815 C   0  0  0  0  0  0  0  0  0  0  0  0
  101.2284  146.0179  137.4629 C   0  0  0  0  0  0  0  0  0  0  0  0
  100.0195  145.7589  138.0807 C   0  0  0  0  0  0  0  0  0  0  0  0
  100.9402  146.5214  140.1416 C   0  0  0  0  0  0  0  0  0  0  0  0
   97.9172  144.1796  135.6682 N   0  0  0  0  0  0  0  0  0  0  0  0
   96.9852  144.5011  136.6281 N   0  0  0  0  0  0  0  0  0  0  0  0
  102.3076  146.5129  138.1722 C   0  0  0  0  0  0  0  0  0  0  0  0
   98.8857  145.2202  137.3246 C   0  0  0  0  0  0  0  0  0  0  0  0
   95.5700  144.2048  136.5318 C   0  0  0  0  0  0  0  0  0  0  0  0
  103.1592  147.2317  140.2037 F   0  0  0  0  0  0  0  0  0  0  0  0
   99.8706  146.0209  139.4216 C   0  0  0  0  0  0  0  0  0  0  0  0
  102.1434  146.7549  139.5125 C   0  0  0  0  0  0  0  0  0  0  0  0
   97.5874  145.1584  137.6924 C   0  0  0  0  0  0  0  0  0  0  0  0
  1  5  2  0
  1  8  1  0
  2  3  2  0
  2  7  1  0
  3  8  1  0
  3 11  1  0
  4 11  2  0
  4 12  1  0
  5  6  1  0
  6  9  1  0
  6 13  1  0
  7 12  2  0
  8 13  2  0
 10 12  1  0
M  END
$$$$

     RDKit          3D

 21 23  0  0  0  0  0  0  0  0999 V2000
   99.6146  145.8022  137.4029 C   0  0  0  0  0  0  0  0  0  0  0  0
  103.6845  147.5978  139.7182 C   0  0  0  0  0  0  0  0  0  0  0  0
   99.1839  144.9878  139.6721 C   0  0  0  0  0  0  0  0  0  0  0  0
   97.3297  143.9431  139.7945 O   0  0  0  0  0  0  0  0  0  0  0  0
   98.4076  145.2100  136.8507 C   0  0  0  0  0  0  0  0  0  0  0  0
   97.5699  144.5289  137.6963 C   0  0  0  0  0  0  0  0  0  0  0  0
   96.9241  144.7122  135.0575 C   0  0  0  0  0  0  0  0  0  0  0  0
   95.0214  143.4330  135.3229 O   0  0  0  0  0  0  0  0  0  0  0  0
  102.4682  147.0051  139.5153 C   0  0  0  0  0  0  0  0  0  0  0  0
  101.4557  146.9027  138.4239 C   0  0  0  0  0  0  0  0  0  0  0  0
   97.8990  144.4702  138.9850 C   0  0  0  0  0  0  0  0  0  0  0  0
   99.9218  145.6213  138.6738 C   0  0  0  0  0  0  0  0  0  0  0  0
   96.0945  144.0171  135.8838 C   0  0  0  0  0  0  0  0  0  0  0  0
  100.4854  145.9653  136.5459 O   0  0  0  0  0  0  0  0  0  0  0  0
   99.7031  144.8738  140.7203 N   0  0  0  0  0  0  0  0  0  0  0  0
   96.4061  143.9599  137.2012 C   0  0  0  0  0  0  0  0  0  0  0  0
   98.0610  145.2807  135.5434 C   0  0  0  0  0  0  0  0  0  0  0  0
  100.7145  145.5755  140.4801 C   0  0  0  0  0  0  0  0  0  0  0  0
  101.6111  145.8941  141.5362 C   0  0  0  0  0  0  0  0  0  0  0  0
   99.2265  144.4042  141.8422 O   0  0  0  0  0  0  0  0  0  0  0  0
  100.8364  146.2425  139.2654 C   0  0  0  0  0  0  0  0  0  0  0  0
  1  5  4  0
  1 12  4  0
  1 14  1  0
  2  9  1  0
  3 11  4  0
  3 12  4  0
  3 15  1  0
  4 11  2  0
  5  6  4  0
  5 17  4  0
  6 11  4  0
  6 16  4  0
  7 13  4  0
  7 17  4  0
  8 13  1  0
  9 10  1  0
 10 21  1  0
 12 21  1  0
 13 16  4  0
 15 18  1  0
 15 20  1  0
 18 19  1  0
 18 21  2  0
M  END
$$$$

     RDKit          3D

 18 21  0  0  0  0  0  0  0  0999 V2000
   96.3600  143.8388  138.0506 C   0  0  0  0  0  0  0  0  0  0  0  0
   98.2049  144.7415  139.2254 N   0  0  0  0  0  0  0  0  0  0  0  0
   98.1117  144.8801  136.9180 C   0  0  0  0  0  0  0  0  0  0  0  0
   95.7614  143.5522  136.8921 C   0  0  0  0  0  0  0  0  0  0  0  0
  100.2080  145.5873  140.2833 C   0  0  0  0  0  0  0  0  0  0  0  0
  102.4926  146.5229  140.9917 C   0  0  0  0  0  0  0  0  0  0  0  0
   94.5926  142.8909  136.6879 O   0  0  0  0  0  0  0  0  0  0  0  0
  101.4636  146.1933  140.1617 C   0  0  0  0  0  0  0  0  0  0  0  0
  101.1293  146.5142  137.7825 C   0  0  0  0  0  0  0  0  0  0  0  0
  103.4429  147.1395  140.3257 C   0  0  0  0  0  0  0  0  0  0  0  0
  103.1189  147.2778  139.0285 N   0  0  0  0  0  0  0  0  0  0  0  0
   99.2476  145.5543  136.8463 N   0  0  0  0  0  0  0  0  0  0  0  0
   99.4075  145.3931  139.1631 C   0  0  0  0  0  0  0  0  0  0  0  0
  101.8606  146.6909  138.8832 C   0  0  0  0  0  0  0  0  0  0  0  0
   97.5369  144.4939  138.0655 C   0  0  0  0  0  0  0  0  0  0  0  0
   99.8801  145.7900  137.8844 C   0  0  0  0  0  0  0  0  0  0  0  0
   97.4955  144.5801  135.7953 C   0  0  0  0  0  0  0  0  0  0  0  0
   96.3589  143.9219  135.8340 C   0  0  0  0  0  0  0  0  0  0  0  0
  1  4  2  0
  1 15  1  0
  2 13  2  0
  2 15  1  0
  3 12  1  0
  3 15  2  0
  3 17  1  0
  4  7  1  0
  4 18  1  0
  5  8  2  0
  5 13  1  0
  6  8  1  0
  6 10  2  0
  8 14  1  0
  9 14  1  0
  9 16  2  0
 10 11  1  0
 11 14  2  0
 12 16  1  0
 13 16  1  0
 17 18  2  0
M  END
$$$$

     RDKit          3D

 15 16  0  0  0  0  0  0  0  0999 V2000
  102.4793  146.5246  137.8934 C   0  0  0  0  0  0  0  0  0  0  0  0
   96.9317  145.2452  138.2774 C   0  0  0  0  0  0  0  0  0  0  0  0
   98.2684  145.3971  137.9943 C   0  0  0  0  0  0  0  0  0  0  0  0
   96.1345  144.4879  137.4396 C   0  0  0  0  0  0  0  0  0  0  0  0
  100.3333  146.3388  138.9607 C   0  0  0  0  0  0  0  0  0  0  0  0
   96.6529  143.9395  136.2965 C   0  0  0  0  0  0  0  0  0  0  0  0
  102.3014  146.8136  140.2574 C   0  0  0  0  0  0  0  0  0  0  0  0
   98.9688  146.1829  138.8570 N   0  0  0  0  0  0  0  0  0  0  0  0
   98.7840  144.7880  136.8605 C   0  0  0  0  0  0  0  0  0  0  0  0
  104.4619  147.0125  139.2112 N   0  0  0  0  0  0  0  0  0  0  0  0
   95.5749  142.9847  135.3536 Cl  0  0  0  0  0  0  0  0  0  0  0  0
  101.1116  146.3273  137.8182 C   0  0  0  0  0  0  0  0  0  0  0  0
  100.9396  146.6155  140.1844 C   0  0  0  0  0  0  0  0  0  0  0  0
  103.0731  146.7994  139.1084 C   0  0  0  0  0  0  0  0  0  0  0  0
   97.9819  144.1256  135.9694 C   0  0  0  0  0  0  0  0  0  0  0  0
  1 12  2  0
  1 14  1  0
  2  3  2  0
  2  4  1  0
  3  8  1  0
  3  9  1  0
  4  6  2  0
  5  8  1  0
  5 12  1  0
  5 13  2  0
  6 11  1  0
  6 15  1  0
  7 13  1  0
  7 14  2  0
  9 15  2  0
 10 14  1  0
M  END
$$$$

     RDKit          3D

  8  7  0  0  0  0  0  0  0  0999 V2000
   99.4922  144.8969  136.6413 C   0  0  0  0  0  0  0  0  0  0  0  0
  101.6720  147.1702  138.8949 C   0  0  0  0  0  0  0  0  0  0  0  0
  101.4086  146.1601  137.8176 C   0  0  0  0  0  0  0  0  0  0  0  0
   98.1990  144.9500  135.8966 C   0  0  0  0  0  0  0  0  0  0  0  0
   97.2231  143.8623  136.2349 C   0  0  0  0  0  0  0  0  0  0  0  0
   95.8902  143.8645  135.5689 C   0  0  0  0  0  0  0  0  0  0  0  0
  103.1161  147.5195  139.1495 C   0  0  0  0  0  0  0  0  0  0  0  0
   99.9781  146.2171  137.2649 C   0  0  0  0  0  0  0  0  0  0  0  0
  1  4  1  0
  1  8  1  0
  2  3  1  0
  2  7  1  0
  3  8  1  0
  4  5  1  0
  5  6  1  0
M  END
$$$$

     RDKit          3D

 12 13  0  0  0  0  0  0  0  0999 V2000
   97.5535  144.3453  136.9531 C   0  0  0  0  0  0  0  0  0  0  0  0
   99.7884  145.3418  139.9114 C   0  0  0  0  0  0  0  0  0  0  0  0
  103.1694  146.9833  139.2200 O   0  0  0  0  0  0  0  0  0  0  0  0
   99.2415  145.1393  138.5444 C   0  0  0  0  0  0  0  0  0  0  0  0
   98.3345  144.8357  135.8793 C   0  0  0  0  0  0  0  0  0  0  0  0
   99.5732  145.4647  136.1371 C   0  0  0  0  0  0  0  0  0  0  0  0
   98.0191  144.5040  138.2649 C   0  0  0  0  0  0  0  0  0  0  0  0
   96.3578  143.7180  136.6993 O   0  0  0  0  0  0  0  0  0  0  0  0
  101.9149  146.4296  139.0461 C   0  0  0  0  0  0  0  0  0  0  0  0
  100.0731  145.6332  137.4583 C   0  0  0  0  0  0  0  0  0  0  0  0
  101.0753  145.9497  140.1573 C   0  0  0  0  0  0  0  0  0  0  0  0
  101.3448  146.2443  137.7187 C   0  0  0  0  0  0  0  0  0  0  0  0
  1  5  2  0
  1  7  1  0
  1  8  1  0
  2  4  1  0
  2 11  2  0
  3  9  1  0
  4  7  2  0
  4 10  1  0
  5  6  1  0
  6 10  2  0
  9 11  1  0
  9 12  2  0
 10 12  1  0
M  END
$$$$

     RDKit          3D

 11 12  0  0  0  0  0  0  0  0999 V2000
   99.3181  145.4028  135.9854 C   0  0  0  0  0  0  0  0  0  0  0  0
   98.3597  146.0511  138.5169 C   0  0  0  0  0  0  0  0  0  0  0  0
   97.5045  145.5129  137.5792 C   0  0  0  0  0  0  0  0  0  0  0  0
   97.0916  144.6761  135.4440 O   0  0  0  0  0  0  0  0  0  0  0  0
  101.9830  146.8216  138.3889 C   0  0  0  0  0  0  0  0  0  0  0  0
  100.7704  146.7946  139.0416 C   0  0  0  0  0  0  0  0  0  0  0  0
  101.5905  146.2892  137.0864 N   0  0  0  0  0  0  0  0  0  0  0  0
  103.3502  147.2720  138.8453 C   0  0  0  0  0  0  0  0  0  0  0  0
   99.6857  146.2646  138.2036 C   0  0  0  0  0  0  0  0  0  0  0  0
  100.1813  145.9409  136.9251 C   0  0  0  0  0  0  0  0  0  0  0  0
   97.9941  145.2125  136.3333 C   0  0  0  0  0  0  0  0  0  0  0  0
  1 10  4  0
  1 11  4  0
  2  3  4  0
  2  9  4  0
  3 11  4  0
  4 11  1  0
  5  6  1  0
  5  7  1  0
  5  8  1  0
  6  9  1  0
  7 10  2  0
  9 10  4  0
M  END
$$$$

     RDKit          3D

 10 10  0  0  0  0  0  0  0  0999 V2000
   96.9248  144.5536  136.9110 C   0  0  0  0  0  0  0  0  0  0  0  0
   98.1196  145.7931  135.4719 C   0  0  0  0  0  0  0  0  0  0  0  0
   98.6821  146.0250  137.5921 C   0  0  0  0  0  0  0  0  0  0  0  0
   97.7462  145.1227  137.8777 C   0  0  0  0  0  0  0  0  0  0  0  0
  101.6796  147.4854  139.4428 C   0  0  0  0  0  0  0  0  0  0  0  0
   99.5043  146.6267  138.6724 C   0  0  0  0  0  0  0  0  0  0  0  0
  100.9457  146.6640  138.4601 C   0  0  0  0  0  0  0  0  0  0  0  0
  103.0989  147.2653  139.6304 N   0  0  0  0  0  0  0  0  0  0  0  0
   98.8505  146.4162  136.3382 C   0  0  0  0  0  0  0  0  0  0  0  0
   97.1479  144.8752  135.7146 C   0  0  0  0  0  0  0  0  0  0  0  0
  1  4  2  0
  1 10  1  0
  2  9  1  0
  2 10  2  0
  3  4  1  0
  3  6  1  0
  3  9  2  0
  5  7  1  0
  5  8  1  0
  6  7  1  0
M  END
$$$$

     RDKit          3D

 13 14  0  0  0  0  0  0  0  0999 V2000
  101.2051  146.2007  138.0637 C   0  0  0  0  0  0  0  0  0  0  0  0
   96.9044  145.5223  135.7565 C   0  0  0  0  0  0  0  0  0  0  0  0
  101.7668  146.6915  140.3531 C   0  0  0  0  0  0  0  0  0  0  0  0
  103.1118  146.6910  140.0119 C   0  0  0  0  0  0  0  0  0  0  0  0
  102.5370  146.2032  137.7281 C   0  0  0  0  0  0  0  0  0  0  0  0
  103.4888  146.4441  138.6954 C   0  0  0  0  0  0  0  0  0  0  0  0
   98.0724  143.7439  135.9892 O   0  0  0  0  0  0  0  0  0  0  0  0
   99.1427  145.5357  136.4587 C   0  0  0  0  0  0  0  0  0  0  0  0
   96.0378  144.3824  135.5337 C   0  0  0  0  0  0  0  0  0  0  0  0
  100.8458  146.4406  139.3688 C   0  0  0  0  0  0  0  0  0  0  0  0
  100.1400  145.9473  137.1424 C   0  0  0  0  0  0  0  0  0  0  0  0
   98.0986  145.0066  136.0476 C   0  0  0  0  0  0  0  0  0  0  0  0
   96.7319  143.3418  135.7291 N   0  0  0  0  0  0  0  0  0  0  0  0
  1  5  1  0
  1 10  2  0
  1 11  1  0
  2  9  1  0
  2 12  2  0
  3  4  2  0
  3 10  1  0
  4  6  1  0
  5  6  2  0
  7 12  1  0
  7 13  1  0
  8 11  3  0
  8 12  1  0
  9 13  2  0
M  END
$$$$

     RDKit          3D

 13 14  0  0  0  0  0  0  0  0999 V2000
  101.1662  147.0882  139.7200 C   0  0  0  0  0  0  0  0  0  0  0  0
   99.8452  146.8273  139.4966 C   0  0  0  0  0  0  0  0  0  0  0  0
   96.6109  143.6248  135.5700 O   0  0  0  0  0  0  0  0  0  0  0  0
   99.9838  144.9943  136.2417 C   0  0  0  0  0  0  0  0  0  0  0  0
   97.2232  145.0517  137.3385 C   0  0  0  0  0  0  0  0  0  0  0  0
  100.3930  145.7836  137.4246 C   0  0  0  0  0  0  0  0  0  0  0  0
   97.5707  144.4134  136.1672 C   0  0  0  0  0  0  0  0  0  0  0  0
   99.3642  146.1691  138.3821 C   0  0  0  0  0  0  0  0  0  0  0  0
  101.6838  146.1080  137.7199 C   0  0  0  0  0  0  0  0  0  0  0  0
   98.9262  144.4211  135.7680 C   0  0  0  0  0  0  0  0  0  0  0  0
   98.0339  145.7728  138.1502 C   0  0  0  0  0  0  0  0  0  0  0  0
  103.3313  147.0457  139.1534 O   0  0  0  0  0  0  0  0  0  0  0  0
  102.0715  146.7772  138.8096 C   0  0  0  0  0  0  0  0  0  0  0  0
  1  2  4  0
  1 13  4  0
  2  8  4  0
  3  7  1  0
  4  6  4  0
  4 10  4  0
  5  7  4  0
  5 11  4  0
  6  8  4  0
  6  9  4  0
  7 10  4  0
  8 11  4  0
  9 13  4  0
 12 13  1  0
M  END
$$$$

     RDKit          3D

 22 26  0  0  0  0  0  0  0  0999 V2000
  102.7627  146.6076  140.7427 C   0  0  0  0  0  0  0  0  0  0  0  0
  100.3172  146.2762  136.6261 C   0  0  0  0  0  0  0  0  0  0  0  0
   98.3205  145.1000  136.4080 C   0  0  0  0  0  0  0  0  0  0  0  0
  102.5178  147.3274  138.5677 C   0  0  0  0  0  0  0  0  0  0  0  0
   96.2308  143.7810  137.4960 C   0  0  0  0  0  0  0  0  0  0  0  0
   99.2933  145.7976  135.8524 C   0  0  0  0  0  0  0  0  0  0  0  0
   97.2466  144.2210  138.2765 C   0  0  0  0  0  0  0  0  0  0  0  0
   99.5580  144.9461  139.8922 C   0  0  0  0  0  0  0  0  0  0  0  0
   98.3384  144.8748  137.7798 C   0  0  0  0  0  0  0  0  0  0  0  0
   96.2641  143.9683  136.1582 C   0  0  0  0  0  0  0  0  0  0  0  0
  100.4103  146.0894  137.9657 C   0  0  0  0  0  0  0  0  0  0  0  0
  101.3013  144.6467  142.9678 C   0  0  0  0  0  0  0  0  0  0  0  0
  100.5954  145.3541  140.6651 C   0  0  0  0  0  0  0  0  0  0  0  0
   95.2133  143.5078  135.4352 O   0  0  0  0  0  0  0  0  0  0  0  0
   97.3359  144.6073  135.6035 C   0  0  0  0  0  0  0  0  0  0  0  0
  103.2339  147.6461  139.8221 C   0  0  0  0  0  0  0  0  0  0  0  0
   98.8046  144.0937  140.7017 C   0  0  0  0  0  0  0  0  0  0  0  0
  101.4606  146.5061  138.8046 C   0  0  0  0  0  0  0  0  0  0  0  0
   99.4059  145.3296  138.5668 C   0  0  0  0  0  0  0  0  0  0  0  0
  101.5602  146.1204  140.0985 C   0  0  0  0  0  0  0  0  0  0  0  0
  100.5030  144.6864  141.8732 N   0  0  0  0  0  0  0  0  0  0  0  0
   99.3283  144.0042  141.8122 N   0  0  0  0  0  0  0  0  0  0  0  0
  1 16  1  0
  1 20  1  0
  2  6  2  0
  2 11  1  0
  3  6  1  0
  3  9  2  0
  3 15  1  0
  4 16  1  0
  4 18  1  0
  5  7  2  0
  5 10  1  0
  7  9  1  0
  8 13  1  0
  8 17  1  0
  8 19  2  0
  9 19  1  0
 10 14  1  0
 10 15  2  0
 11 18  2  0
 11 19  1  0
 12 21  1  0
 13 20  2  0
 13 21  1  0
 17 22  2  0
 18 20  1  0
 21 22  1  0
M  END
$$$$

     RDKit          3D

  8  7  0  0  0  0  0  0  0  0999 V2000
   99.8545  145.1000  136.4964 C   0  0  0  0  0  0  0  0  0  0  0  0
  101.7505  146.2550  137.8845 C   0  0  0  0  0  0  0  0  0  0  0  0
  102.0870  147.1907  138.9993 C   0  0  0  0  0  0  0  0  0  0  0  0
  100.2898  146.2494  137.4740 C   0  0  0  0  0  0  0  0  0  0  0  0
   97.5710  144.1592  136.1020 C   0  0  0  0  0  0  0  0  0  0  0  0
   96.1682  144.3030  135.6385 C   0  0  0  0  0  0  0  0  0  0  0  0
   98.4576  145.3663  135.9151 C   0  0  0  0  0  0  0  0  0  0  0  0
  103.4207  147.6703  138.9676 O   0  0  0  0  0  0  0  0  0  0  0  0
  1  4  1  0
  1  7  1  0
  2  3  1  0
  2  4  1  0
  3  8  1  0
  5  6  1  0
  5  7  1  0
M  END
$$$$

     RDKit          3D

 12 13  0  0  0  0  0  0  0  0999 V2000
  103.3895  147.0486  139.4345 N   0  0  0  0  0  0  0  0  0  0  0  0
   97.4627  145.1493  137.6540 C   0  0  0  0  0  0  0  0  0  0  0  0
   99.8773  145.9637  138.9730 C   0  0  0  0  0  0  0  0  0  0  0  0
   98.6381  144.2860  135.9243 N   0  0  0  0  0  0  0  0  0  0  0  0
   96.5993  144.4680  136.8324 N   0  0  0  0  0  0  0  0  0  0  0  0
   99.8618  145.4928  137.6696 C   0  0  0  0  0  0  0  0  0  0  0  0
  101.0482  145.6121  136.9233 C   0  0  0  0  0  0  0  0  0  0  0  0
  101.0474  146.4670  139.5654 C   0  0  0  0  0  0  0  0  0  0  0  0
  102.2065  146.1054  137.5141 C   0  0  0  0  0  0  0  0  0  0  0  0
   97.3567  144.0011  135.8344 N   0  0  0  0  0  0  0  0  0  0  0  0
  102.2185  146.5401  138.8301 C   0  0  0  0  0  0  0  0  0  0  0  0
   98.7072  145.0207  137.1027 C   0  0  0  0  0  0  0  0  0  0  0  0
  1 11  1  0
  2  5  1  0
  2 12  2  0
  3  6  2  0
  3  8  1  0
  4 10  2  0
  4 12  1  0
  5 10  1  0
  6  7  1  0
  6 12  1  0
  7  9  2  0
  8 11  2  0
  9 11  1  0
M  END
$$$$

     RDKit          3D

 11 12  0  0  0  0  0  0  0  0999 V2000
  100.0504  145.5161  137.0127 C   0  0  0  0  0  0  0  0  0  0  0  0
  101.3318  146.0110  137.0304 C   0  0  0  0  0  0  0  0  0  0  0  0
  100.6850  146.3083  139.0379 O   0  0  0  0  0  0  0  0  0  0  0  0
  103.0566  147.0564  138.9110 N   0  0  0  0  0  0  0  0  0  0  0  0
  101.7805  146.5126  138.1840 C   0  0  0  0  0  0  0  0  0  0  0  0
   96.9244  143.8813  135.5751 O   0  0  0  0  0  0  0  0  0  0  0  0
   99.6540  145.7086  138.2577 C   0  0  0  0  0  0  0  0  0  0  0  0
   97.9428  144.4799  136.3507 C   0  0  0  0  0  0  0  0  0  0  0  0
   99.2443  144.9331  136.0492 C   0  0  0  0  0  0  0  0  0  0  0  0
   97.6189  144.7273  137.6780 C   0  0  0  0  0  0  0  0  0  0  0  0
   98.4019  145.3188  138.6465 C   0  0  0  0  0  0  0  0  0  0  0  0
  1  2  1  0
  1  7  2  0
  1  9  1  0
  2  5  2  0
  3  5  1  0
  3  7  1  0
  4  5  1  0
  6  8  1  0
  7 11  1  0
  8  9  2  0
  8 10  1  0
 10 11  2  0
M  END
$$$$

     RDKit          3D

 12 12  0  0  0  0  0  0  0  0999 V2000
  102.0840  146.1745  137.9508 C   0  0  0  0  0  0  0  0  0  0  0  0
   96.6245  143.8629  135.9227 C   0  0  0  0  0  0  0  0  0  0  0  0
  101.1327  147.2681  139.7420 C   0  0  0  0  0  0  0  0  0  0  0  0
  102.7020  147.7102  139.7581 S   0  0  0  0  0  0  0  0  0  0  0  0
   99.6403  146.0181  138.0574 N   0  0  0  0  0  0  0  0  0  0  0  0
   96.5398  144.3304  136.1255 O   0  0  0  0  0  0  0  0  0  0  0  0
   95.6838  143.2638  135.6026 S   0  0  0  0  0  0  0  0  0  0  0  0
  103.1386  146.9214  138.3798 C   0  0  0  0  0  0  0  0  0  0  0  0
   98.3943  145.1546  136.7748 C   0  0  0  0  0  0  0  0  0  0  0  0
   97.7510  144.1602  136.1266 C   0  0  0  0  0  0  0  0  0  0  0  0
   99.4478  145.2635  137.2852 N   0  0  0  0  0  0  0  0  0  0  0  0
  100.9989  146.4489  138.7195 C   0  0  0  0  0  0  0  0  0  0  0  0
  1  8  2  0
  1 12  1  0
  2  6  1  0
  2  7  2  0
  2 10  1  0
  3  4  1  0
  3 12  2  0
  4  8  1  0
  5 11  1  0
  5 12  1  0
  9 10  2  3
  9 11  1  0
M  END
$$$$

     RDKit          3D

 19 22  0  0  0  0  0  0  0  0999 V2000
   98.2799  144.8866  139.8241 C   0  0  0  0  0  0  0  0  0  0  0  0
   99.0507  145.4933  137.6181 C   0  0  0  0  0  0  0  0  0  0  0  0
  100.9702  146.3904  138.1236 C   0  0  0  0  0  0  0  0  0  0  0  0
   95.7769  143.9795  137.4969 C   0  0  0  0  0  0  0  0  0  0  0  0
   97.8962  145.0180  137.1005 C   0  0  0  0  0  0  0  0  0  0  0  0
   99.2479  145.4213  138.9837 C   0  0  0  0  0  0  0  0  0  0  0  0
   95.4913  144.0001  136.1179 C   0  0  0  0  0  0  0  0  0  0  0  0
   96.4519  144.5599  135.2576 C   0  0  0  0  0  0  0  0  0  0  0  0
  101.0969  145.9630  140.4491 C   0  0  0  0  0  0  0  0  0  0  0  0
  102.8070  147.1358  139.2977 C   0  0  0  0  0  0  0  0  0  0  0  0
  103.9347  147.7645  139.2791 N   0  0  0  0  0  0  0  0  0  0  0  0
  102.1528  146.9521  138.1722 N   0  0  0  0  0  0  0  0  0  0  0  0
   97.6889  145.0811  135.7335 C   0  0  0  0  0  0  0  0  0  0  0  0
  100.1655  146.0730  137.1287 N   0  0  0  0  0  0  0  0  0  0  0  0
   96.9600  144.4723  137.9767 C   0  0  0  0  0  0  0  0  0  0  0  0
  100.6840  145.4518  141.4110 O   0  0  0  0  0  0  0  0  0  0  0  0
  100.4369  145.9644  139.2440 C   0  0  0  0  0  0  0  0  0  0  0  0
  102.3387  146.6530  140.4417 C   0  0  0  0  0  0  0  0  0  0  0  0
   97.1572  144.4112  139.2945 C   0  0  0  0  0  0  0  0  0  0  0  0
  1  6  1  0
  1 19  2  0
  2  5  1  0
  2  6  1  0
  2 14  1  0
  3 12  1  0
  3 14  2  0
  3 17  1  0
  4  7  1  0
  4 15  2  0
  5 13  2  0
  5 15  1  0
  6 17  2  0
  7  8  2  0
  8 13  1  0
  9 16  2  0
  9 17  1  0
  9 18  1  0
 10 11  1  0
 10 12  2  0
 10 18  1  0
 15 19  1  0
M  END
$$$$

     RDKit          3D

 11 12  0  0  0  0  0  0  0  0999 V2000
   99.7256  146.5131  138.7919 C   0  0  0  0  0  0  0  0  0  0  0  0
   99.5541  145.4390  136.7987 C   0  0  0  0  0  0  0  0  0  0  0  0
  100.9065  146.5879  138.3139 C   0  0  0  0  0  0  0  0  0  0  0  0
   97.5140  145.4920  137.9542 C   0  0  0  0  0  0  0  0  0  0  0  0
  102.1641  147.0359  138.8015 C   0  0  0  0  0  0  0  0  0  0  0  0
   97.6320  144.4447  135.8190 C   0  0  0  0  0  0  0  0  0  0  0  0
   98.9867  144.7597  135.7110 C   0  0  0  0  0  0  0  0  0  0  0  0
   96.9029  144.7843  136.9183 C   0  0  0  0  0  0  0  0  0  0  0  0
   98.8301  145.8313  137.9258 C   0  0  0  0  0  0  0  0  0  0  0  0
  103.1575  147.4014  139.2740 N   0  0  0  0  0  0  0  0  0  0  0  0
  100.8897  145.9470  137.0034 N   0  0  0  0  0  0  0  0  0  0  0  0
  1  3  2  0
  1  9  1  0
  2  7  1  0
  2  9  2  0
  2 11  1  0
  3  5  1  0
  3 11  1  0
  4  8  2  0
  4  9  1  0
  5 10  3  0
  6  7  2  0
  6  8  1  0
M  END
$$$$

     RDKit          3D

 12 12  0  0  0  0  0  0  0  0999 V2000
  102.0790  146.6762  138.9376 C   0  0  0  0  0  0  0  0  0  0  0  0
  100.7647  145.6842  136.2837 C   0  0  0  0  0  0  0  0  0  0  0  0
  103.3322  146.9790  138.9485 N   0  0  0  0  0  0  0  0  0  0  0  0
   98.7236  145.5029  138.2232 C   0  0  0  0  0  0  0  0  0  0  0  0
   96.3304  144.1837  137.2774 O   0  0  0  0  0  0  0  0  0  0  0  0
   99.4754  145.1724  135.9332 C   0  0  0  0  0  0  0  0  0  0  0  0
  101.0318  146.6844  139.2965 N   0  0  0  0  0  0  0  0  0  0  0  0
   97.1899  144.5883  136.5594 C   0  0  0  0  0  0  0  0  0  0  0  0
  100.9954  146.0559  137.6485 C   0  0  0  0  0  0  0  0  0  0  0  0
   98.4650  145.1067  136.9174 C   0  0  0  0  0  0  0  0  0  0  0  0
  100.0103  145.8940  138.5969 C   0  0  0  0  0  0  0  0  0  0  0  0
   96.6775  144.4922  135.4077 O   0  0  0  0  0  0  0  0  0  0  0  0
  1  3  1  0
  1  7  1  0
  2  6  2  0
  2  9  1  0
  4 10  2  0
  4 11  1  0
  5  8  2  0
  6 10  1  0
  7 11  1  0
  8 10  1  0
  8 12  1  0
  9 11  2  0
M  END
$$$$

     RDKit          3D

  9  8  0  0  0  0  0  0  0  0999 V2000
  101.2357  146.8413  138.5255 N   0  0  0  0  0  0  0  0  0  0  0  0
  102.5406  146.7693  138.7563 C   0  0  0  0  0  0  0  0  0  0  0  0
   95.6680  143.8341  135.4258 C   0  0  0  0  0  0  0  0  0  0  0  0
   99.0633  145.2671  136.0243 C   0  0  0  0  0  0  0  0  0  0  0  0
   99.4728  146.3468  137.0159 C   0  0  0  0  0  0  0  0  0  0  0  0
  100.7848  146.1129  137.5721 C   0  0  0  0  0  0  0  0  0  0  0  0
   97.5730  145.2574  135.8790 C   0  0  0  0  0  0  0  0  0  0  0  0
   97.0627  143.8562  135.9164 C   0  0  0  0  0  0  0  0  0  0  0  0
  103.2016  147.8181  139.5921 C   0  0  0  0  0  0  0  0  0  0  0  0
  1  2  1  0
  1  6  2  3
  2  9  1  0
  3  8  1  0
  4  5  1  0
  4  7  1  0
  5  6  1  0
  7  8  1  0
M  END
$$$$

     RDKit          3D

 12 13  0  0  0  0  0  0  0  0999 V2000
   97.9244  144.8633  137.7220 C   0  0  0  0  0  0  0  0  0  0  0  0
  101.5202  146.8508  138.7959 C   0  0  0  0  0  0  0  0  0  0  0  0
   97.5973  144.6165  136.3876 C   0  0  0  0  0  0  0  0  0  0  0  0
   99.0803  145.5370  138.1145 C   0  0  0  0  0  0  0  0  0  0  0  0
  102.7385  147.4831  139.1303 O   0  0  0  0  0  0  0  0  0  0  0  0
   96.4483  143.9283  135.9961 O   0  0  0  0  0  0  0  0  0  0  0  0
   99.4801  145.8252  139.5150 C   0  0  0  0  0  0  0  0  0  0  0  0
  100.6363  146.4465  139.8063 C   0  0  0  0  0  0  0  0  0  0  0  0
   99.9398  145.9588  137.0954 C   0  0  0  0  0  0  0  0  0  0  0  0
  101.1426  146.5993  137.4718 C   0  0  0  0  0  0  0  0  0  0  0  0
   98.4742  145.0651  135.4212 C   0  0  0  0  0  0  0  0  0  0  0  0
   99.6180  145.7279  135.7654 C   0  0  0  0  0  0  0  0  0  0  0  0
  1  3  2  0
  1  4  1  0
  2  5  1  0
  2  8  2  0
  2 10  1  0
  3  6  1  0
  3 11  1  0
  4  7  2  0
  4  9  1  0
  7  8  1  0
  9 10  2  0
  9 12  1  0
 11 12  2  0
M  END
$$$$

     RDKit          3D

 17 20  0  0  0  0  0  0  0  0999 V2000
  100.1206  145.9009  140.7349 N   0  0  0  0  0  0  0  0  0  0  0  0
  101.4890  146.3698  138.8877 C   0  0  0  0  0  0  0  0  0  0  0  0
  103.0896  147.3185  139.8694 C   0  0  0  0  0  0  0  0  0  0  0  0
   96.3938  143.7151  136.3692 C   0  0  0  0  0  0  0  0  0  0  0  0
  102.6832  147.0119  138.8454 N   0  0  0  0  0  0  0  0  0  0  0  0
   97.2541  144.5471  138.4194 C   0  0  0  0  0  0  0  0  0  0  0  0
   98.4641  144.7816  137.8050 C   0  0  0  0  0  0  0  0  0  0  0  0
   99.2637  145.4390  139.8124 C   0  0  0  0  0  0  0  0  0  0  0  0
  102.3534  146.9910  140.7348 N   0  0  0  0  0  0  0  0  0  0  0  0
  100.8264  145.4680  136.6890 C   0  0  0  0  0  0  0  0  0  0  0  0
  101.2503  146.4155  140.2503 C   0  0  0  0  0  0  0  0  0  0  0  0
   97.6241  143.9816  135.7785 C   0  0  0  0  0  0  0  0  0  0  0  0
   96.2304  144.0121  137.6757 C   0  0  0  0  0  0  0  0  0  0  0  0
   99.4514  145.3260  138.5155 C   0  0  0  0  0  0  0  0  0  0  0  0
  100.5785  145.6808  138.0220 C   0  0  0  0  0  0  0  0  0  0  0  0
   98.6441  144.5134  136.4753 C   0  0  0  0  0  0  0  0  0  0  0  0
   99.8233  144.8091  135.9763 C   0  0  0  0  0  0  0  0  0  0  0  0
  1  8  1  0
  1 11  2  0
  2  5  2  0
  2 11  1  0
  2 15  1  0
  3  5  1  0
  3  9  2  0
  4 12  2  0
  4 13  1  0
  6  7  1  0
  6 13  2  0
  7 14  2  0
  7 16  1  0
  8 14  1  0
  9 11  1  0
 10 15  2  0
 10 17  1  0
 12 16  1  0
 14 15  1  0
 16 17  2  0
M  END
$$$$

     RDKit          3D

 18 21  0  0  0  0  0  0  0  0999 V2000
   98.9143  145.0803  138.8008 C   0  0  0  0  0  0  0  0  0  0  0  0
   94.9954  143.0507  136.5569 N   0  0  0  0  0  0  0  0  0  0  0  0
   96.4054  144.6472  135.6268 C   0  0  0  0  0  0  0  0  0  0  0  0
  100.2083  145.1602  140.8487 N   0  0  0  0  0  0  0  0  0  0  0  0
  101.1663  145.8694  140.1837 C   0  0  0  0  0  0  0  0  0  0  0  0
   99.4065  146.2029  136.8808 O   0  0  0  0  0  0  0  0  0  0  0  0
   99.8439  145.9036  138.1741 C   0  0  0  0  0  0  0  0  0  0  0  0
   98.2637  145.5212  136.7354 C   0  0  0  0  0  0  0  0  0  0  0  0
   96.8618  143.9317  137.8441 C   0  0  0  0  0  0  0  0  0  0  0  0
  102.2902  146.1911  140.8677 C   0  0  0  0  0  0  0  0  0  0  0  0
   97.9421  144.7823  137.8368 C   0  0  0  0  0  0  0  0  0  0  0  0
  103.2738  146.8636  140.2301 C   0  0  0  0  0  0  0  0  0  0  0  0
  103.1559  147.2295  138.9309 C   0  0  0  0  0  0  0  0  0  0  0  0
  102.0370  146.8941  138.2658 C   0  0  0  0  0  0  0  0  0  0  0  0
  101.0091  146.2428  138.8421 C   0  0  0  0  0  0  0  0  0  0  0  0
   99.1149  144.7617  140.1535 C   0  0  0  0  0  0  0  0  0  0  0  0
   96.0912  143.8732  136.7014 C   0  0  0  0  0  0  0  0  0  0  0  0
   97.4819  145.4758  135.6235 C   0  0  0  0  0  0  0  0  0  0  0  0
  1  7  2  0
  1 11  1  0
  1 16  1  0
  2 17  1  0
  3 17  2  0
  3 18  1  0
  4  5  1  0
  4 16  2  0
  5 10  1  0
  5 15  2  0
  6  7  1  0
  6  8  1  0
  7 15  1  0
  8 11  1  0
  8 18  2  0
  9 11  2  0
  9 17  1  0
 10 12  2  0
 12 13  1  0
 13 14  2  0
 14 15  1  0
M  END
$$$$

     RDKit          3D

 11 11  0  0  0  0  0  0  0  0999 V2000
   96.4995  144.1012  135.4826 O   0  0  0  0  0  0  0  0  0  0  0  0
  102.7008  147.1994  139.0636 C   0  0  0  0  0  0  0  0  0  0  0  0
   97.3365  145.5317  137.2570 C   0  0  0  0  0  0  0  0  0  0  0  0
   98.8141  144.6677  135.7271 C   0  0  0  0  0  0  0  0  0  0  0  0
   97.5356  144.7685  136.1480 C   0  0  0  0  0  0  0  0  0  0  0  0
  101.5620  146.6958  138.6668 C   0  0  0  0  0  0  0  0  0  0  0  0
  103.6591  147.6299  139.3031 N   0  0  0  0  0  0  0  0  0  0  0  0
  100.6244  146.4093  138.1203 N   0  0  0  0  0  0  0  0  0  0  0  0
   99.8179  145.2002  136.4165 C   0  0  0  0  0  0  0  0  0  0  0  0
   99.5880  145.9201  137.5007 C   0  0  0  0  0  0  0  0  0  0  0  0
   98.3550  146.0962  137.9667 C   0  0  0  0  0  0  0  0  0  0  0  0
  1  5  1  0
  2  6  1  0
  2  7  3  0
  3  5  2  0
  3 11  1  0
  4  5  1  0
  4  9  2  0
  6  8  3  0
  8 10  1  0
  9 10  1  0
 10 11  2  0
M  END
$$$$

     RDKit          3D

 12 13  0  0  0  0  0  0  0  0999 V2000
  100.4863  147.1298  139.8019 C   0  0  0  0  0  0  0  0  0  0  0  0
   99.2939  146.5658  139.3329 C   0  0  0  0  0  0  0  0  0  0  0  0
   97.9647  145.2699  137.7151 C   0  0  0  0  0  0  0  0  0  0  0  0
   96.7019  143.9113  136.0404 O   0  0  0  0  0  0  0  0  0  0  0  0
  101.5907  146.2508  137.7460 C   0  0  0  0  0  0  0  0  0  0  0  0
  100.3851  145.6634  137.2926 C   0  0  0  0  0  0  0  0  0  0  0  0
  103.1277  147.6770  139.6177 Cl  0  0  0  0  0  0  0  0  0  0  0  0
  100.2876  144.9099  136.0379 C   0  0  0  0  0  0  0  0  0  0  0  0
   99.1803  145.8317  138.1271 C   0  0  0  0  0  0  0  0  0  0  0  0
   97.8369  144.5109  136.4725 C   0  0  0  0  0  0  0  0  0  0  0  0
  101.6433  146.9757  139.0328 C   0  0  0  0  0  0  0  0  0  0  0  0
   98.9929  144.3356  135.6631 C   0  0  0  0  0  0  0  0  0  0  0  0
  1  2  2  0
  1 11  1  0
  2  9  1  0
  3  9  2  0
  3 10  1  0
  4 10  1  0
  5  6  1  0
  5 11  2  0
  6  8  2  0
  6  9  1  0
  7 11  1  0
  8 12  1  0
 10 12  2  0
M  END
$$$$

     RDKit          3D

 12 13  0  0  0  0  0  0  0  0999 V2000
   99.6523  145.7385  137.7119 C   0  0  0  0  0  0  0  0  0  0  0  0
  100.7297  146.5209  139.7645 C   0  0  0  0  0  0  0  0  0  0  0  0
   98.3920  144.3993  135.9047 C   0  0  0  0  0  0  0  0  0  0  0  0
  100.8953  145.8677  137.0715 C   0  0  0  0  0  0  0  0  0  0  0  0
  101.9566  146.6243  139.1207 C   0  0  0  0  0  0  0  0  0  0  0  0
   98.4191  145.2947  137.0070 C   0  0  0  0  0  0  0  0  0  0  0  0
   99.5961  146.0990  139.0723 C   0  0  0  0  0  0  0  0  0  0  0  0
  102.0386  146.2882  137.7678 C   0  0  0  0  0  0  0  0  0  0  0  0
   96.3434  144.9263  136.5555 N   0  0  0  0  0  0  0  0  0  0  0  0
   97.1360  145.6341  137.3936 N   0  0  0  0  0  0  0  0  0  0  0  0
  103.1192  147.0615  139.8470 N   0  0  0  0  0  0  0  0  0  0  0  0
   97.0184  144.1829  135.6849 C   0  0  0  0  0  0  0  0  0  0  0  0
  1  4  1  0
  1  6  1  0
  1  7  2  0
  2  5  2  0
  2  7  1  0
  3  6  1  0
  3 12  2  0
  4  8  2  0
  5  8  1  0
  5 11  1  0
  6 10  1  0
  9 10  2  0
  9 12  1  0
M  END
$$$$

     RDKit          3D

 12 13  0  0  0  0  0  0  0  0999 V2000
  100.8729  145.6851  137.0860 C   0  0  0  0  0  0  0  0  0  0  0  0
   98.1469  144.7897  135.9451 C   0  0  0  0  0  0  0  0  0  0  0  0
  100.8800  146.7340  139.6652 C   0  0  0  0  0  0  0  0  0  0  0  0
   96.5748  143.9877  137.1712 N   0  0  0  0  0  0  0  0  0  0  0  0
  102.0355  146.2771  137.5892 C   0  0  0  0  0  0  0  0  0  0  0  0
   97.4815  144.4048  138.0171 C   0  0  0  0  0  0  0  0  0  0  0  0
  103.3256  147.3705  139.2842 N   0  0  0  0  0  0  0  0  0  0  0  0
   99.6932  145.5888  137.8618 C   0  0  0  0  0  0  0  0  0  0  0  0
   99.7042  146.1321  139.1528 C   0  0  0  0  0  0  0  0  0  0  0  0
   98.5498  144.9243  137.2334 C   0  0  0  0  0  0  0  0  0  0  0  0
   96.9294  144.2207  135.9422 N   0  0  0  0  0  0  0  0  0  0  0  0
  102.0642  146.8132  138.8774 C   0  0  0  0  0  0  0  0  0  0  0  0
  1  5  4  0
  1  8  4  0
  2 10  4  0
  2 11  4  0
  3  9  4  0
  3 12  4  0
  4  6  4  0
  4 11  4  0
  5 12  4  0
  6 10  4  0
  7 12  1  0
  8  9  4  0
  8 10  1  0
M  END
$$$$

     RDKit          3D

 22 25  0  0  0  0  0  0  0  0999 V2000
  100.5971  145.6177  141.6945 O   0  0  0  0  0  0  0  0  0  0  0  0
   98.8124  145.2851  139.3596 O   0  0  0  0  0  0  0  0  0  0  0  0
   99.4861  146.0924  137.5125 C   0  0  0  0  0  0  0  0  0  0  0  0
   97.5602  145.0716  135.9302 C   0  0  0  0  0  0  0  0  0  0  0  0
   96.6095  144.1121  137.7403 C   0  0  0  0  0  0  0  0  0  0  0  0
   96.6090  144.5713  135.1463 C   0  0  0  0  0  0  0  0  0  0  0  0
  103.5167  148.0295  139.0152 O   0  0  0  0  0  0  0  0  0  0  0  0
   98.6453  145.4151  138.0501 C   0  0  0  0  0  0  0  0  0  0  0  0
   97.6211  144.8789  137.2699 C   0  0  0  0  0  0  0  0  0  0  0  0
   99.5238  144.7923  141.3850 C   0  0  0  0  0  0  0  0  0  0  0  0
  100.9386  146.2234  140.5826 C   0  0  0  0  0  0  0  0  0  0  0  0
  102.3689  147.3565  139.1321 C   0  0  0  0  0  0  0  0  0  0  0  0
  100.1867  145.9837  139.5699 C   0  0  0  0  0  0  0  0  0  0  0  0
  101.5675  147.1331  138.1369 C   0  0  0  0  0  0  0  0  0  0  0  0
   98.5672  145.8598  135.4202 C   0  0  0  0  0  0  0  0  0  0  0  0
  102.0459  146.9019  140.3168 C   0  0  0  0  0  0  0  0  0  0  0  0
   95.6765  143.8342  135.6142 C   0  0  0  0  0  0  0  0  0  0  0  0
  100.4973  146.4376  138.3385 C   0  0  0  0  0  0  0  0  0  0  0  0
   95.6975  143.6159  136.8975 C   0  0  0  0  0  0  0  0  0  0  0  0
   94.7959  143.3274  134.8121 O   0  0  0  0  0  0  0  0  0  0  0  0
   99.5458  146.3585  136.1922 C   0  0  0  0  0  0  0  0  0  0  0  0
   94.8158  142.9811  137.2832 O   0  0  0  0  0  0  0  0  0  0  0  0
  1 10  1  0
  1 11  1  0
  2  8  1  0
  2 13  1  0
  3  8  2  0
  3 18  1  0
  3 21  1  0
  4  6  1  0
  4  9  2  0
  4 15  1  0
  5  9  1  0
  5 19  2  0
  6 17  2  0
  7 12  1  0
  8  9  1  0
 11 13  1  0
 11 16  2  0
 12 14  2  0
 12 16  1  0
 13 18  2  0
 14 18  1  0
 15 21  2  0
 17 19  1  0
 17 20  1  0
 19 22  1  0
M  END
$$$$

     RDKit          3D

 13 14  0  0  0  0  0  0  0  0999 V2000
   98.5273  144.1910  136.2217 C   0  0  0  0  0  0  0  0  0  0  0  0
  102.0801  146.2703  137.6451 C   0  0  0  0  0  0  0  0  0  0  0  0
   99.7580  145.6101  137.8632 C   0  0  0  0  0  0  0  0  0  0  0  0
   97.2999  145.4642  137.7839 C   0  0  0  0  0  0  0  0  0  0  0  0
   97.3711  143.6961  135.6923 C   0  0  0  0  0  0  0  0  0  0  0  0
  101.0660  146.3341  139.7664 C   0  0  0  0  0  0  0  0  0  0  0  0
   96.2096  144.0554  136.1769 N   0  0  0  0  0  0  0  0  0  0  0  0
   98.5072  145.0942  137.2902 C   0  0  0  0  0  0  0  0  0  0  0  0
   99.8793  145.8625  139.2273 C   0  0  0  0  0  0  0  0  0  0  0  0
  100.9120  145.8082  137.0945 C   0  0  0  0  0  0  0  0  0  0  0  0
   96.2025  144.8794  137.1532 C   0  0  0  0  0  0  0  0  0  0  0  0
  103.3800  147.0041  139.5355 N   0  0  0  0  0  0  0  0  0  0  0  0
  102.1857  146.5234  138.9778 C   0  0  0  0  0  0  0  0  0  0  0  0
  1  5  2  0
  1  8  1  0
  2 10  2  0
  2 13  1  0
  3  8  1  0
  3  9  2  0
  3 10  1  0
  4  8  2  0
  4 11  1  0
  5  7  1  0
  6  9  1  0
  6 13  2  0
  7 11  2  0
 12 13  1  0
M  END
$$$$

     RDKit          3D

 13 14  0  0  0  0  0  0  0  0999 V2000
  102.7770  146.7171  138.3018 N   0  0  0  0  0  0  0  0  0  0  0  0
   99.3673  145.3699  137.6340 C   0  0  0  0  0  0  0  0  0  0  0  0
  101.8153  146.4481  140.3909 N   0  0  0  0  0  0  0  0  0  0  0  0
  100.5799  145.9096  138.4052 C   0  0  0  0  0  0  0  0  0  0  0  0
   99.4154  145.3952  136.2656 C   0  0  0  0  0  0  0  0  0  0  0  0
   98.2384  144.8702  138.2893 C   0  0  0  0  0  0  0  0  0  0  0  0
  100.7132  146.0150  139.7954 C   0  0  0  0  0  0  0  0  0  0  0  0
  101.6842  146.2839  137.6692 C   0  0  0  0  0  0  0  0  0  0  0  0
  102.7605  146.7818  139.5833 C   0  0  0  0  0  0  0  0  0  0  0  0
   97.2189  144.4231  136.1709 C   0  0  0  0  0  0  0  0  0  0  0  0
   98.3453  144.9298  135.5459 C   0  0  0  0  0  0  0  0  0  0  0  0
   97.1402  144.3851  137.5318 C   0  0  0  0  0  0  0  0  0  0  0  0
   96.1707  143.9573  135.4323 O   0  0  0  0  0  0  0  0  0  0  0  0
  1  8  2  0
  1  9  1  0
  2  4  1  0
  2  5  2  0
  2  6  1  0
  3  7  1  0
  3  9  2  0
  4  7  2  0
  4  8  1  0
  5 11  1  0
  6 12  2  0
 10 11  2  0
 10 12  1  0
 10 13  1  0
M  END
$$$$

     RDKit          3D

  9  8  0  0  0  0  0  0  0  0999 V2000
   95.8150  143.7103  135.7174 C   0  0  0  0  0  0  0  0  0  0  0  0
   99.0418  145.6308  135.6997 C   0  0  0  0  0  0  0  0  0  0  0  0
  101.4805  146.6684  138.3403 C   0  0  0  0  0  0  0  0  0  0  0  0
   99.5218  146.1591  136.9543 C   0  0  0  0  0  0  0  0  0  0  0  0
  103.4780  147.0595  139.6792 C   0  0  0  0  0  0  0  0  0  0  0  0
   96.7218  144.8511  135.5860 C   0  0  0  0  0  0  0  0  0  0  0  0
   98.0779  144.5380  136.0069 C   0  0  0  0  0  0  0  0  0  0  0  0
  100.9377  145.9619  137.1970 C   0  0  0  0  0  0  0  0  0  0  0  0
  102.9100  146.6266  138.4274 C   0  0  0  0  0  0  0  0  0  0  0  0
  1  6  1  0
  2  4  1  0
  2  7  1  0
  3  8  1  0
  3  9  1  0
  4  8  1  0
  5  9  1  0
  6  7  1  0
M  END
$$$$

     RDKit          3D

  8  7  0  0  0  0  0  0  0  0999 V2000
  103.2025  147.1685  139.1369 C   0  0  0  0  0  0  0  0  0  0  0  0
   99.2620  145.3271  137.5932 C   0  0  0  0  0  0  0  0  0  0  0  0
  101.9401  146.6173  138.5597 C   0  0  0  0  0  0  0  0  0  0  0  0
   97.6622  144.2671  136.0854 C   0  0  0  0  0  0  0  0  0  0  0  0
   96.2877  144.3506  135.5876 C   0  0  0  0  0  0  0  0  0  0  0  0
  100.6755  146.5133  139.3550 C   0  0  0  0  0  0  0  0  0  0  0  0
   98.2305  145.5569  136.5509 C   0  0  0  0  0  0  0  0  0  0  0  0
   99.3990  146.4579  138.5646 C   0  0  0  0  0  0  0  0  0  0  0  0
  1  3  1  0
  2  7  1  0
  2  8  1  0
  3  6  1  0
  4  5  1  0
  4  7  1  0
  6  8  1  0
M  END
$$$$

     RDKit          3D

 10 10  0  0  0  0  0  0  0  0999 V2000
  102.1620  147.2856  139.2273 C   0  0  0  0  0  0  0  0  0  0  0  0
   98.3817  143.9567  135.8746 O   0  0  0  0  0  0  0  0  0  0  0  0
   99.8913  145.7422  136.7119 C   0  0  0  0  0  0  0  0  0  0  0  0
  103.6014  147.4506  139.1162 N   0  0  0  0  0  0  0  0  0  0  0  0
   96.4708  144.5648  136.5863 C   0  0  0  0  0  0  0  0  0  0  0  0
   97.0442  143.6233  135.9096 C   0  0  0  0  0  0  0  0  0  0  0  0
   97.3606  145.5208  137.0249 C   0  0  0  0  0  0  0  0  0  0  0  0
   98.5265  145.1396  136.5927 C   0  0  0  0  0  0  0  0  0  0  0  0
  101.7096  146.4869  138.0621 C   0  0  0  0  0  0  0  0  0  0  0  0
  100.2305  146.2186  138.0991 C   0  0  0  0  0  0  0  0  0  0  0  0
  1  4  1  0
  1  9  1  0
  2  6  1  0
  2  8  1  0
  3  8  1  0
  3 10  1  0
  5  6  2  0
  5  7  1  0
  7  8  2  0
  9 10  1  0
M  END
$$$$

     RDKit          3D

 12 13  0  0  0  0  0  0  0  0999 V2000
  100.9855  145.8233  137.4549 C   0  0  0  0  0  0  0  0  0  0  0  0
   99.4478  144.9356  135.9828 C   0  0  0  0  0  0  0  0  0  0  0  0
  101.8917  146.6299  139.9618 C   0  0  0  0  0  0  0  0  0  0  0  0
  100.6267  146.0412  139.7870 C   0  0  0  0  0  0  0  0  0  0  0  0
  102.7207  146.8110  138.8789 C   0  0  0  0  0  0  0  0  0  0  0  0
   97.2404  144.0794  136.7541 C   0  0  0  0  0  0  0  0  0  0  0  0
  100.1612  145.6484  138.5511 C   0  0  0  0  0  0  0  0  0  0  0  0
   98.9214  145.0773  138.3895 C   0  0  0  0  0  0  0  0  0  0  0  0
   96.7974  143.6709  135.7120 O   0  0  0  0  0  0  0  0  0  0  0  0
  102.2342  146.3745  137.6654 C   0  0  0  0  0  0  0  0  0  0  0  0
  100.6305  145.4954  136.1677 N   0  0  0  0  0  0  0  0  0  0  0  0
   98.5529  144.7188  137.0569 C   0  0  0  0  0  0  0  0  0  0  0  0
  1  7  2  0
  1 10  1  0
  1 11  1  0
  2 11  2  0
  2 12  1  0
  3  4  2  0
  3  5  1  0
  4  7  1  0
  5 10  2  0
  6  9  2  0
  6 12  1  0
  7  8  1  0
  8 12  2  0
M  END
$$$$

     RDKit          3D

 15 17  0  0  0  0  0  0  0  0999 V2000
  101.5528  146.4396  140.1662 C   0  0  0  0  0  0  0  0  0  0  0  0
   96.2494  143.9537  135.2975 O   0  0  0  0  0  0  0  0  0  0  0  0
   98.3911  144.6947  135.9508 C   0  0  0  0  0  0  0  0  0  0  0  0
   99.4811  145.6695  139.3772 N   0  0  0  0  0  0  0  0  0  0  0  0
  101.2968  145.9111  137.7670 C   0  0  0  0  0  0  0  0  0  0  0  0
  102.8715  146.8064  139.9798 C   0  0  0  0  0  0  0  0  0  0  0  0
   97.0990  144.3966  136.2638 C   0  0  0  0  0  0  0  0  0  0  0  0
   99.1920  145.1498  137.0091 C   0  0  0  0  0  0  0  0  0  0  0  0
  100.7514  145.9870  139.0990 C   0  0  0  0  0  0  0  0  0  0  0  0
  100.5060  145.5171  136.7540 N   0  0  0  0  0  0  0  0  0  0  0  0
   96.6537  144.4947  137.5415 C   0  0  0  0  0  0  0  0  0  0  0  0
  102.6214  146.3628  137.6321 C   0  0  0  0  0  0  0  0  0  0  0  0
   97.4247  144.9184  138.5723 C   0  0  0  0  0  0  0  0  0  0  0  0
   98.7264  145.2463  138.3199 C   0  0  0  0  0  0  0  0  0  0  0  0
  103.3669  146.8085  138.6962 C   0  0  0  0  0  0  0  0  0  0  0  0
  1  6  2  0
  1  9  1  0
  2  7  1  0
  3  7  2  0
  3  8  1  0
  4  9  2  0
  4 14  1  0
  5  9  1  0
  5 10  2  0
  5 12  1  0
  6 15  1  0
  7 11  1  0
  8 10  1  0
  8 14  2  0
 11 13  2  0
 12 15  2  0
 13 14  1  0
M  END
$$$$

     RDKit          3D

 10 10  0  0  0  0  0  0  0  0999 V2000
   99.4814  144.7376  136.3482 C   0  0  0  0  0  0  0  0  0  0  0  0
   97.0683  145.3626  137.3519 C   0  0  0  0  0  0  0  0  0  0  0  0
  100.4488  146.2060  137.9071 C   0  0  0  0  0  0  0  0  0  0  0  0
   98.3159  144.1793  135.8530 C   0  0  0  0  0  0  0  0  0  0  0  0
  102.4564  147.0612  138.9739 C   0  0  0  0  0  0  0  0  0  0  0  0
  101.4013  146.6463  138.3865 C   0  0  0  0  0  0  0  0  0  0  0  0
   98.2004  145.8590  137.8663 C   0  0  0  0  0  0  0  0  0  0  0  0
   97.0545  144.5096  136.2961 C   0  0  0  0  0  0  0  0  0  0  0  0
  103.4211  147.4391  139.4371 N   0  0  0  0  0  0  0  0  0  0  0  0
   99.4033  145.6125  137.3785 C   0  0  0  0  0  0  0  0  0  0  0  0
  1  4  2  0
  1 10  1  0
  2  7  1  0
  2  8  2  0
  3  6  3  0
  3 10  1  0
  4  8  1  0
  5  6  1  0
  5  9  3  0
  7 10  2  0
M  END
$$$$

     RDKit          3D

 17 19  0  0  0  0  0  0  0  0999 V2000
   99.9165  145.3587  137.0624 O   0  0  0  0  0  0  0  0  0  0  0  0
   95.8990  143.4312  135.3461 O   0  0  0  0  0  0  0  0  0  0  0  0
  102.0313  146.7807  140.3667 C   0  0  0  0  0  0  0  0  0  0  0  0
  103.9585  147.7600  138.9274 Cl  0  0  0  0  0  0  0  0  0  0  0  0
   96.2164  143.7423  137.6596 C   0  0  0  0  0  0  0  0  0  0  0  0
  101.8629  146.4636  137.9597 C   0  0  0  0  0  0  0  0  0  0  0  0
  100.6027  145.8296  138.1521 C   0  0  0  0  0  0  0  0  0  0  0  0
   98.5039  145.2337  140.6687 O   0  0  0  0  0  0  0  0  0  0  0  0
   97.9443  144.4195  136.1646 C   0  0  0  0  0  0  0  0  0  0  0  0
   98.9316  145.1302  139.6382 C   0  0  0  0  0  0  0  0  0  0  0  0
   96.6820  143.8902  136.3307 C   0  0  0  0  0  0  0  0  0  0  0  0
  100.7998  146.1853  140.5622 C   0  0  0  0  0  0  0  0  0  0  0  0
   96.9658  144.1890  138.7222 C   0  0  0  0  0  0  0  0  0  0  0  0
  100.1028  145.6881  139.4501 C   0  0  0  0  0  0  0  0  0  0  0  0
   98.2339  144.7407  138.5622 C   0  0  0  0  0  0  0  0  0  0  0  0
  102.5531  146.9532  139.0749 C   0  0  0  0  0  0  0  0  0  0  0  0
   98.6964  144.8579  137.2443 C   0  0  0  0  0  0  0  0  0  0  0  0
  1  7  1  0
  1 17  1  0
  2 11  1  0
  3 12  2  0
  3 16  1  0
  4 16  1  0
  5 11  2  0
  5 13  1  0
  6  7  1  0
  6 16  2  0
  7 14  2  0
  8 10  2  0
  9 11  1  0
  9 17  2  0
 10 14  1  0
 10 15  1  0
 12 14  1  0
 13 15  2  0
 15 17  1  0
M  END
$$$$

     RDKit          3D

 13 14  0  0  0  0  0  0  0  0999 V2000
   97.2008  144.3132  136.4313 C   0  0  0  0  0  0  0  0  0  0  0  0
  101.2134  146.6634  140.3153 N   0  0  0  0  0  0  0  0  0  0  0  0
   99.3383  145.4345  137.7498 C   0  0  0  0  0  0  0  0  0  0  0  0
   97.0066  144.9695  137.6302 C   0  0  0  0  0  0  0  0  0  0  0  0
  103.3644  147.3026  139.5891 N   0  0  0  0  0  0  0  0  0  0  0  0
   96.1921  143.6789  135.7816 O   0  0  0  0  0  0  0  0  0  0  0  0
  100.4278  146.0262  138.4250 C   0  0  0  0  0  0  0  0  0  0  0  0
   98.4637  144.1760  135.9086 C   0  0  0  0  0  0  0  0  0  0  0  0
  102.1397  146.8420  139.3716 C   0  0  0  0  0  0  0  0  0  0  0  0
   99.5224  144.7509  136.5836 C   0  0  0  0  0  0  0  0  0  0  0  0
   98.0563  145.5410  138.2931 C   0  0  0  0  0  0  0  0  0  0  0  0
  101.6564  146.4220  138.0150 C   0  0  0  0  0  0  0  0  0  0  0  0
  100.2092  146.2151  139.7620 N   0  0  0  0  0  0  0  0  0  0  0  0
  1  4  4  0
  1  6  1  0
  1  8  4  0
  2  9  4  0
  2 13  4  0
  3  7  1  0
  3 10  4  0
  3 11  4  0
  4 11  4  0
  5  9  1  0
  7 12  4  0
  7 13  4  0
  8 10  4  0
  9 12  4  0
M  END
$$$$

     RDKit          3D

 30 35  0  0  0  0  0  0  0  0999 V2000
   98.2750  144.1484  141.8794 C   0  0  0  0  0  0  0  0  0  0  0  0
   99.0888  144.0257  146.0051 C   0  0  0  0  0  0  0  0  0  0  0  0
   96.9170  143.7571  139.8535 C   0  0  0  0  0  0  0  0  0  0  0  0
  100.3382  145.9009  139.7062 C   0  0  0  0  0  0  0  0  0  0  0  0
   96.7399  143.8252  138.4972 C   0  0  0  0  0  0  0  0  0  0  0  0
   97.5781  144.4895  136.3138 C   0  0  0  0  0  0  0  0  0  0  0  0
  100.1380  143.7258  146.6218 O   0  0  0  0  0  0  0  0  0  0  0  0
  102.5621  146.6954  140.2724 C   0  0  0  0  0  0  0  0  0  0  0  0
   95.6157  143.1134  136.5486 C   0  0  0  0  0  0  0  0  0  0  0  0
  101.3779  145.3486  141.8867 O   0  0  0  0  0  0  0  0  0  0  0  0
  102.6095  147.2376  139.0080 C   0  0  0  0  0  0  0  0  0  0  0  0
   97.2661  143.9954  142.7810 C   0  0  0  0  0  0  0  0  0  0  0  0
  101.4144  145.9857  140.6144 C   0  0  0  0  0  0  0  0  0  0  0  0
   97.9769  144.6181  146.7808 O   0  0  0  0  0  0  0  0  0  0  0  0
   99.4538  146.2319  137.7220 O   0  0  0  0  0  0  0  0  0  0  0  0
   98.8757  145.1014  139.6228 C   0  0  0  0  0  0  0  0  0  0  0  0
  101.5795  147.1109  138.1984 C   0  0  0  0  0  0  0  0  0  0  0  0
   98.6059  145.2811  138.3032 C   0  0  0  0  0  0  0  0  0  0  0  0
  100.4581  146.4521  138.4900 C   0  0  0  0  0  0  0  0  0  0  0  0
   99.8551  143.9186  143.7170 C   0  0  0  0  0  0  0  0  0  0  0  0
   96.5118  143.7714  135.6907 C   0  0  0  0  0  0  0  0  0  0  0  0
   97.6419  144.5836  137.7234 C   0  0  0  0  0  0  0  0  0  0  0  0
   95.7015  143.1827  137.9098 C   0  0  0  0  0  0  0  0  0  0  0  0
   99.5803  144.0778  142.4285 C   0  0  0  0  0  0  0  0  0  0  0  0
   98.7833  144.0102  135.8654 O   0  0  0  0  0  0  0  0  0  0  0  0
  103.7244  147.8695  138.5649 F   0  0  0  0  0  0  0  0  0  0  0  0
  100.6470  144.1273  141.6353 N   0  0  0  0  0  0  0  0  0  0  0  0
   97.5894  143.7943  144.1678 C   0  0  0  0  0  0  0  0  0  0  0  0
   98.0259  144.4075  140.4524 C   0  0  0  0  0  0  0  0  0  0  0  0
   98.8251  143.8915  144.5657 C   0  0  0  0  0  0  0  0  0  0  0  0
  1 12  2  0
  1 24  1  0
  1 29  1  0
  2  7  1  0
  2 14  2  0
  2 30  1  0
  3  5  2  0
  3 29  1  0
  4 13  2  0
  4 16  1  0
  4 19  1  0
  5 22  1  0
  5 23  1  0
  6 21  2  0
  6 22  1  0
  6 25  1  0
  8 11  2  0
  8 13  1  0
  9 21  1  0
  9 23  2  0
 10 13  1  0
 10 27  1  0
 11 17  1  0
 11 26  1  0
 12 28  1  0
 15 18  1  0
 15 19  1  0
 16 18  1  0
 16 29  2  0
 17 19  2  0
 18 22  2  0
 20 24  2  0
 20 30  1  0
 24 27  1  0
 28 30  2  0
M  END
$$$$

     RDKit          3D

 12 13  0  0  0  0  0  0  0  0999 V2000
   96.9152  144.3963  136.2600 C   0  0  0  0  0  0  0  0  0  0  0  0
   98.8461  145.5715  137.9818 C   0  0  0  0  0  0  0  0  0  0  0  0
   99.8072  146.1568  138.8060 C   0  0  0  0  0  0  0  0  0  0  0  0
   97.5403  145.2982  138.4308 C   0  0  0  0  0  0  0  0  0  0  0  0
   99.1892  145.2044  136.6268 C   0  0  0  0  0  0  0  0  0  0  0  0
  101.4580  146.0627  137.0134 C   0  0  0  0  0  0  0  0  0  0  0  0
  102.9449  147.6072  139.7786 N   0  0  0  0  0  0  0  0  0  0  0  0
  100.4941  145.4737  136.1745 C   0  0  0  0  0  0  0  0  0  0  0  0
   96.6035  144.7178  137.5844 C   0  0  0  0  0  0  0  0  0  0  0  0
  101.0894  146.4230  138.3130 C   0  0  0  0  0  0  0  0  0  0  0  0
   98.2276  144.6079  135.8132 C   0  0  0  0  0  0  0  0  0  0  0  0
  102.1237  147.0276  139.1695 C   0  0  0  0  0  0  0  0  0  0  0  0
  1  9  2  0
  1 11  1  0
  2  3  1  0
  2  4  2  0
  2  5  1  0
  3 10  2  0
  4  9  1  0
  5  8  1  0
  5 11  2  0
  6  8  2  0
  6 10  1  0
  7 12  3  0
 10 12  1  0
M  END
$$$$

     RDKit          3D

  9  8  0  0  0  0  0  0  0  0999 V2000
   99.0540  145.5242  136.4804 C   0  0  0  0  0  0  0  0  0  0  0  0
  100.8509  146.1691  138.1729 C   0  0  0  0  0  0  0  0  0  0  0  0
  101.3457  146.1208  139.6041 C   0  0  0  0  0  0  0  0  0  0  0  0
  103.6886  146.7888  139.4413 N   0  0  0  0  0  0  0  0  0  0  0  0
   96.7339  144.7401  135.7372 C   0  0  0  0  0  0  0  0  0  0  0  0
   95.9224  143.5321  135.6669 C   0  0  0  0  0  0  0  0  0  0  0  0
   99.5294  145.5505  137.8927 C   0  0  0  0  0  0  0  0  0  0  0  0
   98.1234  144.4182  136.2206 C   0  0  0  0  0  0  0  0  0  0  0  0
  102.3980  146.7790  139.9198 C   0  0  0  0  0  0  0  0  0  0  0  0
  1  7  1  0
  1  8  1  0
  2  3  1  0
  2  7  1  0
  3  9  1  0
  4  9  1  0
  5  6  1  0
  5  8  1  0
M  END
$$$$

     RDKit          3D

 11 11  0  0  0  0  0  0  0  0999 V2000
   99.7121  145.2393  136.1289 C   0  0  0  0  0  0  0  0  0  0  0  0
   98.8777  145.4677  138.3559 C   0  0  0  0  0  0  0  0  0  0  0  0
  103.2867  147.4404  138.9697 N   0  0  0  0  0  0  0  0  0  0  0  0
  102.4571  146.9069  139.7787 N   0  0  0  0  0  0  0  0  0  0  0  0
   99.8741  145.6671  137.4407 C   0  0  0  0  0  0  0  0  0  0  0  0
   96.3272  143.6398  136.3078 O   0  0  0  0  0  0  0  0  0  0  0  0
   97.6631  144.8062  137.9762 C   0  0  0  0  0  0  0  0  0  0  0  0
   98.4110  144.5204  135.7562 C   0  0  0  0  0  0  0  0  0  0  0  0
   97.4561  144.3379  136.6871 C   0  0  0  0  0  0  0  0  0  0  0  0
  101.2152  146.6985  139.2148 C   0  0  0  0  0  0  0  0  0  0  0  0
  101.1108  146.2928  137.8954 C   0  0  0  0  0  0  0  0  0  0  0  0
  1  5  2  0
  1  8  1  0
  2  5  1  0
  2  7  2  0
  3  4  1  0
  4 10  1  0
  5 11  1  0
  6  9  1  0
  7  9  1  0
  8  9  2  0
 10 11  1  0
M  END
$$$$

     RDKit          3D

 12 13  0  0  0  0  0  0  0  0999 V2000
   97.1386  143.7897  136.0383 N   0  0  0  0  0  0  0  0  0  0  0  0
  102.0889  146.4413  138.8177 C   0  0  0  0  0  0  0  0  0  0  0  0
  100.8890  145.6075  136.9786 C   0  0  0  0  0  0  0  0  0  0  0  0
   96.5345  144.3382  137.0149 N   0  0  0  0  0  0  0  0  0  0  0  0
   99.8574  145.6556  139.0906 C   0  0  0  0  0  0  0  0  0  0  0  0
   99.7967  145.3464  137.7724 C   0  0  0  0  0  0  0  0  0  0  0  0
   97.3679  145.0031  137.8044 N   0  0  0  0  0  0  0  0  0  0  0  0
   98.4424  144.0787  136.1311 C   0  0  0  0  0  0  0  0  0  0  0  0
   98.5653  144.8117  137.2183 C   0  0  0  0  0  0  0  0  0  0  0  0
  102.0319  146.1383  137.4841 C   0  0  0  0  0  0  0  0  0  0  0  0
  103.2038  146.9838  139.3729 N   0  0  0  0  0  0  0  0  0  0  0  0
  101.0011  146.1956  139.6039 C   0  0  0  0  0  0  0  0  0  0  0  0
  1  4  1  0
  1  8  2  0
  2 10  2  0
  2 11  1  0
  2 12  1  0
  3  6  2  0
  3 10  1  0
  4  7  1  0
  5  6  1  0
  5 12  2  0
  6  9  1  0
  7  9  2  0
  8  9  1  0
M  END
$$$$

     RDKit          3D

 17 19  0  0  0  0  0  0  0  0999 V2000
  100.6245  146.2516  138.9874 C   0  0  0  0  0  0  0  0  0  0  0  0
   99.2998  145.9618  139.2460 N   0  0  0  0  0  0  0  0  0  0  0  0
   95.4481  144.0691  137.7351 C   0  0  0  0  0  0  0  0  0  0  0  0
  101.5473  146.9256  139.7091 C   0  0  0  0  0  0  0  0  0  0  0  0
   97.7446  144.7348  137.6473 C   0  0  0  0  0  0  0  0  0  0  0  0
  102.7933  147.0423  139.1546 C   0  0  0  0  0  0  0  0  0  0  0  0
  100.9884  145.7460  137.7787 C   0  0  0  0  0  0  0  0  0  0  0  0
   98.9400  145.2774  138.1334 C   0  0  0  0  0  0  0  0  0  0  0  0
  103.7303  147.6691  139.7806 F   0  0  0  0  0  0  0  0  0  0  0  0
   97.8521  144.0974  136.4891 C   0  0  0  0  0  0  0  0  0  0  0  0
  102.1838  145.8972  137.2609 C   0  0  0  0  0  0  0  0  0  0  0  0
   96.8982  143.5248  135.8521 N   0  0  0  0  0  0  0  0  0  0  0  0
   99.5563  144.4098  135.9814 C   0  0  0  0  0  0  0  0  0  0  0  0
  103.1194  146.5521  137.9492 C   0  0  0  0  0  0  0  0  0  0  0  0
   95.6848  143.4653  136.5316 C   0  0  0  0  0  0  0  0  0  0  0  0
   96.5295  144.6760  138.4013 C   0  0  0  0  0  0  0  0  0  0  0  0
   99.9193  145.1644  137.2546 N   0  0  0  0  0  0  0  0  0  0  0  0
  1  2  1  0
  1  4  2  0
  1  7  1  0
  2  8  2  0
  3 15  2  0
  3 16  1  0
  4  6  1  0
  5  8  1  0
  5 10  1  0
  5 16  2  0
  6  9  1  0
  6 14  2  0
  7 11  2  0
  7 17  1  0
  8 17  1  0
 10 12  2  0
 11 14  1  0
 12 15  1  0
 13 17  1  0
M  END
$$$$

     RDKit          3D

 10 10  0  0  0  0  0  0  0  0999 V2000
   97.9172  144.4648  136.3784 C   0  0  0  0  0  0  0  0  0  0  0  0
   99.9601  145.7797  137.5876 C   0  0  0  0  0  0  0  0  0  0  0  0
   96.8097  143.7555  135.7478 O   0  0  0  0  0  0  0  0  0  0  0  0
  102.0420  146.8895  138.7458 C   0  0  0  0  0  0  0  0  0  0  0  0
  100.2072  145.0914  136.4032 C   0  0  0  0  0  0  0  0  0  0  0  0
   99.1513  144.4329  135.7910 C   0  0  0  0  0  0  0  0  0  0  0  0
  101.1213  146.4137  138.2017 C   0  0  0  0  0  0  0  0  0  0  0  0
   98.7031  145.8107  138.1781 C   0  0  0  0  0  0  0  0  0  0  0  0
   97.6487  145.1370  137.5548 C   0  0  0  0  0  0  0  0  0  0  0  0
  103.1972  147.4784  139.4551 C   0  0  0  0  0  0  0  0  0  0  0  0
  1  3  1  0
  1  6  2  0
  1  9  1  0
  2  5  2  0
  2  7  1  0
  2  8  1  0
  4  7  3  0
  4 10  1  0
  5  6  1  0
  8  9  2  0
M  END
$$$$

     RDKit          3D

 12 13  0  0  0  0  0  0  0  0999 V2000
   97.1911  143.7055  135.6145 O   0  0  0  0  0  0  0  0  0  0  0  0
  102.1262  146.3048  138.0184 C   0  0  0  0  0  0  0  0  0  0  0  0
   97.3992  144.7063  137.7763 C   0  0  0  0  0  0  0  0  0  0  0  0
  100.2340  146.3420  139.5142 C   0  0  0  0  0  0  0  0  0  0  0  0
   99.2924  144.6338  136.2803 C   0  0  0  0  0  0  0  0  0  0  0  0
   99.4383  145.6635  138.5140 C   0  0  0  0  0  0  0  0  0  0  0  0
  101.3721  145.6511  137.0340 C   0  0  0  0  0  0  0  0  0  0  0  0
  100.0199  145.2985  137.2603 C   0  0  0  0  0  0  0  0  0  0  0  0
   98.1263  145.3502  138.7492 C   0  0  0  0  0  0  0  0  0  0  0  0
   97.9751  144.3520  136.5630 C   0  0  0  0  0  0  0  0  0  0  0  0
  101.5994  146.6665  139.2568 C   0  0  0  0  0  0  0  0  0  0  0  0
  102.5052  147.2187  140.1059 O   0  0  0  0  0  0  0  0  0  0  0  0
  1 10  1  0
  2  7  2  0
  2 11  1  0
  3  9  1  0
  3 10  2  0
  4  6  1  0
  4 11  2  0
  5  8  2  0
  5 10  1  0
  6  8  1  0
  6  9  2  0
  7  8  1  0
 11 12  1  0
M  END
$$$$

     RDKit          3D

 13 14  0  0  0  0  0  0  0  0999 V2000
  100.7872  146.0430  137.6134 C   0  0  0  0  0  0  0  0  0  0  0  0
   97.3797  145.1332  138.1347 C   0  0  0  0  0  0  0  0  0  0  0  0
  101.9017  146.4570  138.1743 N   0  0  0  0  0  0  0  0  0  0  0  0
   98.4481  145.4849  137.5091 C   0  0  0  0  0  0  0  0  0  0  0  0
   97.3707  144.9236  135.6186 C   0  0  0  0  0  0  0  0  0  0  0  0
   99.5520  146.4363  139.5163 C   0  0  0  0  0  0  0  0  0  0  0  0
   99.6187  145.9978  138.2300 C   0  0  0  0  0  0  0  0  0  0  0  0
   96.3280  144.6847  137.5807 N   0  0  0  0  0  0  0  0  0  0  0  0
   98.4479  145.3678  136.1713 C   0  0  0  0  0  0  0  0  0  0  0  0
  103.0335  147.2653  139.9759 N   0  0  0  0  0  0  0  0  0  0  0  0
   96.4196  144.6254  136.3457 C   0  0  0  0  0  0  0  0  0  0  0  0
  100.6982  146.8743  140.1272 C   0  0  0  0  0  0  0  0  0  0  0  0
  101.8846  146.8773  139.4356 C   0  0  0  0  0  0  0  0  0  0  0  0
  1  3  2  0
  1  7  1  0
  2  4  2  0
  2  8  1  0
  3 13  1  0
  4  7  1  0
  4  9  1  0
  5  9  2  0
  5 11  1  0
  6  7  2  0
  6 12  1  0
  8 11  2  0
 10 13  1  0
 12 13  2  0
M  END
$$$$
