
     RDKit          3D

 15 17  0  0  0  0  0  0  0  0999 V2000
   98.7210  145.0603  138.5040 C   0  0  0  0  0  0  0  0  0  0  0  0
   96.3453  143.6641  135.4494 O   0  0  0  0  0  0  0  0  0  0  0  0
   98.4735  144.6145  136.1642 C   0  0  0  0  0  0  0  0  0  0  0  0
  102.8389  146.7798  140.1063 C   0  0  0  0  0  0  0  0  0  0  0  0
  101.5662  146.3561  140.3867 C   0  0  0  0  0  0  0  0  0  0  0  0
   99.4643  145.4692  139.6084 C   0  0  0  0  0  0  0  0  0  0  0  0
   97.1925  144.1638  136.3912 C   0  0  0  0  0  0  0  0  0  0  0  0
   96.6814  144.1433  137.6565 C   0  0  0  0  0  0  0  0  0  0  0  0
  103.3171  146.8216  138.8784 N   0  0  0  0  0  0  0  0  0  0  0  0
   97.4567  144.6081  138.6594 C   0  0  0  0  0  0  0  0  0  0  0  0
  100.7452  145.9230  139.3548 C   0  0  0  0  0  0  0  0  0  0  0  0
  100.4773  145.5384  137.0257 N   0  0  0  0  0  0  0  0  0  0  0  0
  102.5114  146.3876  137.8945 C   0  0  0  0  0  0  0  0  0  0  0  0
   99.2262  145.0729  137.2190 C   0  0  0  0  0  0  0  0  0  0  0  0
  101.2355  145.9388  138.0625 C   0  0  0  0  0  0  0  0  0  0  0  0
  1  6  1  0
  1 10  1  0
  1 14  2  0
  2  7  1  0
  3  7  2  0
  3 14  1  0
  4  5  2  0
  4  9  1  0
  5 11  1  0
  6 11  2  0
  7  8  1  0
  8 10  2  0
  9 13  2  0
 11 15  1  0
 12 14  1  0
 12 15  2  0
 13 15  1  0
M  END
$$$$

     RDKit          3D

 17 20  0  0  0  0  0  0  0  0999 V2000
  102.6469  147.4635  139.2367 C   0  0  0  0  0  0  0  0  0  0  0  0
   98.0277  144.7267  137.8894 C   0  0  0  0  0  0  0  0  0  0  0  0
   99.0496  144.8273  135.7687 C   0  0  0  0  0  0  0  0  0  0  0  0
   96.0076  143.3191  136.7506 C   0  0  0  0  0  0  0  0  0  0  0  0
  101.7908  147.1624  140.1551 C   0  0  0  0  0  0  0  0  0  0  0  0
  100.0438  145.7380  137.5788 C   0  0  0  0  0  0  0  0  0  0  0  0
   96.9597  144.3201  138.6229 C   0  0  0  0  0  0  0  0  0  0  0  0
  101.0372  146.3899  138.3204 N   0  0  0  0  0  0  0  0  0  0  0  0
   97.0271  143.7572  136.0097 C   0  0  0  0  0  0  0  0  0  0  0  0
  103.8327  148.1293  139.2428 C   0  0  0  0  0  0  0  0  0  0  0  0
  100.7791  146.4227  139.6096 C   0  0  0  0  0  0  0  0  0  0  0  0
  100.0932  145.5137  136.2477 C   0  0  0  0  0  0  0  0  0  0  0  0
   99.5180  145.9347  139.5771 N   0  0  0  0  0  0  0  0  0  0  0  0
   98.0402  144.4363  136.5391 C   0  0  0  0  0  0  0  0  0  0  0  0
  102.3052  147.0038  138.0859 N   0  0  0  0  0  0  0  0  0  0  0  0
   99.0962  145.3797  138.3841 C   0  0  0  0  0  0  0  0  0  0  0  0
   95.9960  143.6191  138.0515 C   0  0  0  0  0  0  0  0  0  0  0  0
  1  5  4  0
  1 10  1  0
  1 15  4  0
  2  7  4  0
  2 14  4  0
  2 16  4  0
  3 12  4  0
  3 14  4  0
  4  9  4  0
  4 17  4  0
  5 11  4  0
  6  8  4  0
  6 12  4  0
  6 16  4  0
  7 17  4  0
  8 11  4  0
  8 15  4  0
  9 14  4  0
 11 13  4  0
 13 16  4  0
M  END
$$$$

     RDKit          3D

 14 16  0  0  0  0  0  0  0  0999 V2000
  103.1992  147.1724  139.4051 O   0  0  0  0  0  0  0  0  0  0  0  0
   98.1013  145.9182  137.6739 C   0  0  0  0  0  0  0  0  0  0  0  0
   96.1594  143.5257  135.4107 O   0  0  0  0  0  0  0  0  0  0  0  0
   98.0931  145.2737  136.4740 C   0  0  0  0  0  0  0  0  0  0  0  0
   99.0930  144.8725  135.8205 C   0  0  0  0  0  0  0  0  0  0  0  0
  100.4802  145.9462  137.4289 C   0  0  0  0  0  0  0  0  0  0  0  0
   97.8045  144.6958  136.0433 C   0  0  0  0  0  0  0  0  0  0  0  0
  101.9887  146.9871  138.9510 C   0  0  0  0  0  0  0  0  0  0  0  0
  100.9491  147.3147  139.6945 C   0  0  0  0  0  0  0  0  0  0  0  0
  101.7126  146.2709  137.8248 C   0  0  0  0  0  0  0  0  0  0  0  0
   99.4421  146.3257  138.1084 C   0  0  0  0  0  0  0  0  0  0  0  0
   99.6946  147.0067  139.2702 C   0  0  0  0  0  0  0  0  0  0  0  0
  100.2857  145.2776  136.3411 C   0  0  0  0  0  0  0  0  0  0  0  0
   97.3558  144.0916  136.1638 C   0  0  0  0  0  0  0  0  0  0  0  0
  1  8  1  0
  2  4  1  0
  2 11  1  0
  3 14  1  0
  4  5  1  0
  4  7  1  0
  5  7  1  0
  5 13  2  0
  6 10  1  0
  6 11  2  0
  6 13  1  0
  7 14  1  0
  8  9  1  0
  8 10  2  0
  9 12  2  0
 11 12  1  0
M  END
$$$$

     RDKit          3D

 13 14  0  0  0  0  0  0  0  0999 V2000
  103.0573  147.2310  140.2164 F   0  0  0  0  0  0  0  0  0  0  0  0
   99.7563  145.5083  138.4916 C   0  0  0  0  0  0  0  0  0  0  0  0
   97.4847  144.7312  138.5633 C   0  0  0  0  0  0  0  0  0  0  0  0
   98.6518  144.9196  137.8812 C   0  0  0  0  0  0  0  0  0  0  0  0
   96.4065  144.1433  137.9384 C   0  0  0  0  0  0  0  0  0  0  0  0
  101.1243  145.9730  140.4682 C   0  0  0  0  0  0  0  0  0  0  0  0
  101.7613  146.8189  138.3421 C   0  0  0  0  0  0  0  0  0  0  0  0
  100.6553  146.2431  137.7629 C   0  0  0  0  0  0  0  0  0  0  0  0
   96.4495  143.7545  136.6895 N   0  0  0  0  0  0  0  0  0  0  0  0
  100.0183  145.3938  139.8621 C   0  0  0  0  0  0  0  0  0  0  0  0
   98.6932  144.4937  136.5676 C   0  0  0  0  0  0  0  0  0  0  0  0
  102.0014  146.6920  139.6839 C   0  0  0  0  0  0  0  0  0  0  0  0
   97.5588  143.9249  136.0107 C   0  0  0  0  0  0  0  0  0  0  0  0
  1 12  1  0
  2  4  1  0
  2  8  2  0
  2 10  1  0
  3  4  2  0
  3  5  1  0
  4 11  1  0
  5  9  2  0
  6 10  2  0
  6 12  1  0
  7  8  1  0
  7 12  2  0
  9 13  1  0
 11 13  2  0
M  END
$$$$

     RDKit          3D

 13 14  0  0  0  0  0  0  0  0999 V2000
  100.3844  146.9729  139.2974 C   0  0  0  0  0  0  0  0  0  0  0  0
   96.2181  143.6220  135.7849 O   0  0  0  0  0  0  0  0  0  0  0  0
   97.2868  144.2823  136.2513 C   0  0  0  0  0  0  0  0  0  0  0  0
   98.2692  144.9625  135.4482 C   0  0  0  0  0  0  0  0  0  0  0  0
   97.4143  144.3289  137.6211 C   0  0  0  0  0  0  0  0  0  0  0  0
   99.3275  145.5925  136.0553 C   0  0  0  0  0  0  0  0  0  0  0  0
  103.0171  146.7733  138.2169 C   0  0  0  0  0  0  0  0  0  0  0  0
   98.5125  145.0140  138.2237 C   0  0  0  0  0  0  0  0  0  0  0  0
  102.8053  147.4665  139.4422 C   0  0  0  0  0  0  0  0  0  0  0  0
  101.5039  147.6125  139.9405 C   0  0  0  0  0  0  0  0  0  0  0  0
   99.4558  145.6321  137.4448 C   0  0  0  0  0  0  0  0  0  0  0  0
  100.5562  146.3138  138.0931 C   0  0  0  0  0  0  0  0  0  0  0  0
  101.8697  146.1939  137.6005 C   0  0  0  0  0  0  0  0  0  0  0  0
  1 10  2  0
  1 12  1  0
  2  3  1  0
  3  4  2  0
  3  5  1  0
  4  6  1  0
  5  8  2  0
  6 11  2  0
  7  9  2  0
  7 13  1  0
  8 11  1  0
  9 10  1  0
 11 12  1  0
 12 13  2  0
M  END
$$$$

     RDKit          3D

 30 35  0  0  0  0  0  0  0  0999 V2000
  100.1389  147.1205  140.1584 O   0  0  0  0  0  0  0  0  0  0  0  0
  100.8204  144.5600  140.8210 C   0  0  0  0  0  0  0  0  0  0  0  0
  100.8575  143.6233  142.9832 C   0  0  0  0  0  0  0  0  0  0  0  0
   98.3758  144.7350  136.9996 C   0  0  0  0  0  0  0  0  0  0  0  0
   99.0117  145.0755  138.2183 C   0  0  0  0  0  0  0  0  0  0  0  0
   97.3203  144.1034  139.4554 C   0  0  0  0  0  0  0  0  0  0  0  0
   96.5713  143.8895  138.3255 C   0  0  0  0  0  0  0  0  0  0  0  0
   96.9666  143.3971  145.8103 C   0  0  0  0  0  0  0  0  0  0  0  0
   98.6024  144.5814  139.4756 C   0  0  0  0  0  0  0  0  0  0  0  0
  101.7346  145.3511  139.9650 C   0  0  0  0  0  0  0  0  0  0  0  0
  101.4688  144.1627  141.9172 N   0  0  0  0  0  0  0  0  0  0  0  0
  102.9521  147.4246  139.8180 C   0  0  0  0  0  0  0  0  0  0  0  0
   99.5439  143.9022  143.1249 C   0  0  0  0  0  0  0  0  0  0  0  0
   99.1443  143.4232  146.8141 C   0  0  0  0  0  0  0  0  0  0  0  0
  101.0131  146.4353  139.1354 C   0  0  0  0  0  0  0  0  0  0  0  0
  102.1046  147.3839  138.7518 C   0  0  0  0  0  0  0  0  0  0  0  0
   99.4458  144.4903  140.7535 C   0  0  0  0  0  0  0  0  0  0  0  0
   98.7796  147.5008  139.8544 C   0  0  0  0  0  0  0  0  0  0  0  0
   99.0155  144.9748  135.7743 C   0  0  0  0  0  0  0  0  0  0  0  0
   98.9418  143.6688  144.4293 C   0  0  0  0  0  0  0  0  0  0  0  0
  100.2734  145.7251  138.0178 C   0  0  0  0  0  0  0  0  0  0  0  0
   99.7230  143.6144  145.5761 C   0  0  0  0  0  0  0  0  0  0  0  0
   98.6926  144.1800  141.9739 C   0  0  0  0  0  0  0  0  0  0  0  0
   97.0888  144.2002  137.0797 C   0  0  0  0  0  0  0  0  0  0  0  0
  100.3165  145.5907  135.7807 C   0  0  0  0  0  0  0  0  0  0  0  0
  102.6550  146.1780  140.7648 C   0  0  0  0  0  0  0  0  0  0  0  0
   97.7704  143.3282  146.9554 C   0  0  0  0  0  0  0  0  0  0  0  0
  100.8358  145.9303  136.8309 C   0  0  0  0  0  0  0  0  0  0  0  0
   97.5555  143.5831  144.5561 C   0  0  0  0  0  0  0  0  0  0  0  0
   96.4492  144.0112  136.1577 O   0  0  0  0  0  0  0  0  0  0  0  0
  1 15  1  0
  1 18  1  0
  2 10  1  0
  2 11  2  0
  2 17  1  0
  3 11  1  0
  3 13  1  0
  4  5  4  0
  4 19  4  0
  4 24  4  0
  5  9  1  0
  5 21  4  0
  6  7  4  0
  6  9  4  0
  7 24  4  0
  8 27  4  0
  8 29  4  0
  9 17  1  0
 10 15  1  0
 10 26  1  0
 12 16  1  0
 12 26  1  0
 13 20  1  0
 13 23  1  0
 14 22  4  0
 14 27  4  0
 15 16  1  0
 15 21  1  0
 17 23  1  0
 19 25  4  0
 20 22  4  0
 20 29  4  0
 21 28  4  0
 24 30  2  0
 25 28  4  0
M  END
$$$$

     RDKit          3D

 13 14  0  0  0  0  0  0  0  0999 V2000
   98.1164  144.6826  136.4495 C   0  0  0  0  0  0  0  0  0  0  0  0
   96.1492  144.7268  136.3998 N   0  0  0  0  0  0  0  0  0  0  0  0
   97.8449  143.6864  135.8962 N   0  0  0  0  0  0  0  0  0  0  0  0
   99.6153  145.7132  137.9842 C   0  0  0  0  0  0  0  0  0  0  0  0
  101.1014  146.0065  139.9384 C   0  0  0  0  0  0  0  0  0  0  0  0
   96.5531  143.7440  135.8638 C   0  0  0  0  0  0  0  0  0  0  0  0
  101.9293  146.3693  137.7552 C   0  0  0  0  0  0  0  0  0  0  0  0
   99.5239  145.0949  136.8328 C   0  0  0  0  0  0  0  0  0  0  0  0
  100.8627  146.0309  138.5651 C   0  0  0  0  0  0  0  0  0  0  0  0
   97.0928  145.3665  136.7767 N   0  0  0  0  0  0  0  0  0  0  0  0
  103.3739  146.6320  139.6565 C   0  0  0  0  0  0  0  0  0  0  0  0
  102.3647  146.3106  140.5131 C   0  0  0  0  0  0  0  0  0  0  0  0
  103.1647  146.6669  138.2934 C   0  0  0  0  0  0  0  0  0  0  0  0
  1  3  2  0
  1  8  1  0
  1 10  1  0
  2  6  2  0
  2 10  1  0
  3  6  1  0
  4  8  2  3
  4  9  1  0
  5  9  2  0
  5 12  1  0
  7  9  1  0
  7 13  2  0
 11 12  2  0
 11 13  1  0
M  END
$$$$

     RDKit          3D

 13 14  0  0  0  0  0  0  0  0999 V2000
   96.7902  144.2623  137.3661 N   0  0  0  0  0  0  0  0  0  0  0  0
   99.8480  147.0015  138.9371 C   0  0  0  0  0  0  0  0  0  0  0  0
  101.0955  145.6439  137.4928 C   0  0  0  0  0  0  0  0  0  0  0  0
  102.2342  146.1175  138.0031 C   0  0  0  0  0  0  0  0  0  0  0  0
   98.0618  145.4483  136.1553 C   0  0  0  0  0  0  0  0  0  0  0  0
  101.0356  147.5131  139.4820 C   0  0  0  0  0  0  0  0  0  0  0  0
   97.7786  144.6636  138.1467 C   0  0  0  0  0  0  0  0  0  0  0  0
   96.1413  144.5346  135.2326 N   0  0  0  0  0  0  0  0  0  0  0  0
   96.9742  144.7299  136.1293 N   0  0  0  0  0  0  0  0  0  0  0  0
   98.6195  145.4612  137.4077 C   0  0  0  0  0  0  0  0  0  0  0  0
   99.8431  146.0241  137.9054 C   0  0  0  0  0  0  0  0  0  0  0  0
  102.2511  147.0365  138.9887 C   0  0  0  0  0  0  0  0  0  0  0  0
  103.4603  147.4478  139.4491 N   0  0  0  0  0  0  0  0  0  0  0  0
  1  7  2  0
  1  9  1  0
  2  6  2  0
  2 11  1  0
  3  4  1  0
  3 11  2  0
  4 12  2  0
  5  9  1  0
  5 10  2  0
  6 12  1  0
  7 10  1  0
  8  9  1  0
 10 11  1  0
 12 13  1  0
M  END
$$$$

     RDKit          3D

 25 29  0  0  0  0  0  0  0  0999 V2000
  100.1222  144.9321  140.4771 C   0  0  0  0  0  0  0  0  0  0  0  0
   98.1891  144.7532  135.8303 C   0  0  0  0  0  0  0  0  0  0  0  0
   95.2667  144.0796  137.9456 C   0  0  0  0  0  0  0  0  0  0  0  0
  103.8787  148.5124  138.9257 N   0  0  0  0  0  0  0  0  0  0  0  0
  101.1933  146.3741  137.3533 C   0  0  0  0  0  0  0  0  0  0  0  0
  101.2809  145.3141  141.2062 C   0  0  0  0  0  0  0  0  0  0  0  0
   99.6506  143.3778  142.2495 C   0  0  0  0  0  0  0  0  0  0  0  0
  101.9750  146.7957  139.4341 C   0  0  0  0  0  0  0  0  0  0  0  0
  100.8339  146.4826  138.6494 C   0  0  0  0  0  0  0  0  0  0  0  0
   94.9213  143.3051  136.7146 C   0  0  0  0  0  0  0  0  0  0  0  0
  100.6956  145.7655  135.1498 O   0  0  0  0  0  0  0  0  0  0  0  0
   99.0845  145.2058  136.8196 C   0  0  0  0  0  0  0  0  0  0  0  0
   98.8393  145.2279  138.2599 C   0  0  0  0  0  0  0  0  0  0  0  0
   96.6136  144.6354  137.6855 C   0  0  0  0  0  0  0  0  0  0  0  0
   95.8547  143.8098  135.6398 C   0  0  0  0  0  0  0  0  0  0  0  0
  100.2865  145.8459  136.3595 C   0  0  0  0  0  0  0  0  0  0  0  0
   97.5029  145.2351  138.7265 C   0  0  0  0  0  0  0  0  0  0  0  0
  102.1874  146.2723  140.6753 C   0  0  0  0  0  0  0  0  0  0  0  0
  102.9908  147.6874  139.1151 C   0  0  0  0  0  0  0  0  0  0  0  0
   99.9548  145.4779  139.0733 C   0  0  0  0  0  0  0  0  0  0  0  0
   99.3394  143.9123  141.0400 C   0  0  0  0  0  0  0  0  0  0  0  0
   97.1199  145.6161  139.7934 O   0  0  0  0  0  0  0  0  0  0  0  0
   96.9640  144.4750  136.3652 C   0  0  0  0  0  0  0  0  0  0  0  0
  100.7528  143.7760  142.9112 C   0  0  0  0  0  0  0  0  0  0  0  0
  101.5520  144.7224  142.4032 C   0  0  0  0  0  0  0  0  0  0  0  0
  1  6  1  0
  1 20  2  0
  1 21  1  0
  2 12  1  0
  2 23  1  0
  3 10  2  0
  3 14  1  0
  4 19  3  0
  5  9  1  0
  5 16  1  0
  6 18  2  0
  6 25  1  0
  7 21  2  0
  7 24  1  0
  8  9  2  0
  8 18  1  0
  8 19  1  0
  9 20  1  0
 10 15  1  0
 11 16  1  0
 12 13  1  0
 12 16  2  0
 13 17  1  0
 13 20  1  0
 14 17  1  0
 14 23  2  0
 15 23  1  0
 17 22  2  0
 24 25  2  0
M  END
$$$$

     RDKit          3D

 17 19  0  0  0  0  0  0  0  0999 V2000
   98.9277  145.1175  138.6819 C   0  0  0  0  0  0  0  0  0  0  0  0
   97.9266  144.5852  137.9140 C   0  0  0  0  0  0  0  0  0  0  0  0
  100.4411  145.0304  140.6505 O   0  0  0  0  0  0  0  0  0  0  0  0
  102.4950  146.4026  140.7854 C   0  0  0  0  0  0  0  0  0  0  0  0
   96.7436  144.0916  138.5306 C   0  0  0  0  0  0  0  0  0  0  0  0
  103.3613  147.1717  140.1582 N   0  0  0  0  0  0  0  0  0  0  0  0
  100.1531  145.5158  136.6982 C   0  0  0  0  0  0  0  0  0  0  0  0
  100.0336  145.6110  138.0560 C   0  0  0  0  0  0  0  0  0  0  0  0
   98.0598  144.5314  136.5362 C   0  0  0  0  0  0  0  0  0  0  0  0
  101.4081  145.8787  140.1269 C   0  0  0  0  0  0  0  0  0  0  0  0
  103.2004  147.4510  138.8793 C   0  0  0  0  0  0  0  0  0  0  0  0
   99.1667  144.9762  135.9345 C   0  0  0  0  0  0  0  0  0  0  0  0
   95.7621  143.5428  137.6473 C   0  0  0  0  0  0  0  0  0  0  0  0
  101.2948  146.1819  138.7498 C   0  0  0  0  0  0  0  0  0  0  0  0
   97.0833  143.9781  135.7106 C   0  0  0  0  0  0  0  0  0  0  0  0
  102.2026  147.0062  138.1486 C   0  0  0  0  0  0  0  0  0  0  0  0
   95.9316  143.4733  136.2668 N   0  0  0  0  0  0  0  0  0  0  0  0
  1  2  2  0
  1  8  1  0
  2  5  1  0
  2  9  1  0
  3 10  1  0
  4  6  2  0
  4 10  1  0
  5 13  2  0
  6 11  1  0
  7  8  2  0
  7 12  1  0
  8 14  1  0
  9 12  2  0
  9 15  1  0
 10 14  2  0
 11 16  2  0
 13 17  1  0
 14 16  1  0
 15 17  2  0
M  END
$$$$

     RDKit          3D

 14 15  0  0  0  0  0  0  0  0999 V2000
   97.6358  145.5394  135.4799 C   0  0  0  0  0  0  0  0  0  0  0  0
   98.0301  144.5493  137.9411 C   0  0  0  0  0  0  0  0  0  0  0  0
   95.7572  144.2957  135.2548 O   0  0  0  0  0  0  0  0  0  0  0  0
  101.2278  145.9956  137.3832 C   0  0  0  0  0  0  0  0  0  0  0  0
   98.7345  145.9144  136.1719 C   0  0  0  0  0  0  0  0  0  0  0  0
  102.3423  146.3130  137.8261 N   0  0  0  0  0  0  0  0  0  0  0  0
  101.2796  146.4640  140.0150 N   0  0  0  0  0  0  0  0  0  0  0  0
   96.9741  144.1698  137.2603 C   0  0  0  0  0  0  0  0  0  0  0  0
  102.3587  146.5937  139.3175 C   0  0  0  0  0  0  0  0  0  0  0  0
  103.5021  146.9361  139.8811 N   0  0  0  0  0  0  0  0  0  0  0  0
  100.0429  145.7986  138.0669 C   0  0  0  0  0  0  0  0  0  0  0  0
  100.1457  146.1079  139.3979 C   0  0  0  0  0  0  0  0  0  0  0  0
   98.9305  145.4236  137.4156 C   0  0  0  0  0  0  0  0  0  0  0  0
   96.7757  144.6629  136.0024 C   0  0  0  0  0  0  0  0  0  0  0  0
  1  5  2  0
  1 14  1  0
  2  8  1  0
  2 13  2  0
  3 14  1  0
  4  6  2  0
  4 11  1  0
  5 13  1  0
  6  9  1  0
  7  9  2  0
  7 12  1  0
  8 14  2  0
  9 10  1  0
 11 12  2  0
 11 13  1  0
M  END
$$$$

     RDKit          3D

 13 14  0  0  0  0  0  0  0  0999 V2000
   99.7652  146.0022  137.8572 C   0  0  0  0  0  0  0  0  0  0  0  0
   99.8295  146.6252  139.0996 C   0  0  0  0  0  0  0  0  0  0  0  0
  102.2445  146.8507  138.7038 C   0  0  0  0  0  0  0  0  0  0  0  0
  102.1555  146.2469  137.4928 N   0  0  0  0  0  0  0  0  0  0  0  0
   98.5344  145.4822  137.3165 C   0  0  0  0  0  0  0  0  0  0  0  0
  101.1325  147.0800  139.5670 C   0  0  0  0  0  0  0  0  0  0  0  0
   97.0521  145.2656  135.3824 C   0  0  0  0  0  0  0  0  0  0  0  0
   96.5518  144.1470  137.5176 C   0  0  0  0  0  0  0  0  0  0  0  0
   97.7298  144.6593  138.0836 C   0  0  0  0  0  0  0  0  0  0  0  0
   98.2229  145.7551  135.9851 C   0  0  0  0  0  0  0  0  0  0  0  0
   96.2150  144.4454  136.1727 C   0  0  0  0  0  0  0  0  0  0  0  0
  100.8951  145.8410  137.1065 C   0  0  0  0  0  0  0  0  0  0  0  0
  103.5321  147.2582  139.1210 N   0  0  0  0  0  0  0  0  0  0  0  0
  1  2  2  0
  1  5  1  0
  1 12  1  0
  2  6  1  0
  3  4  1  0
  3  6  2  0
  3 13  1  0
  4 12  2  0
  5  9  2  0
  5 10  1  0
  7 10  2  0
  7 11  1  0
  8  9  1  0
  8 11  2  0
M  END
$$$$

     RDKit          3D

 24 28  0  0  0  0  0  0  0  0999 V2000
   98.3351  145.0645  139.7834 C   0  0  0  0  0  0  0  0  0  0  0  0
  100.9831  144.3131  142.6583 C   0  0  0  0  0  0  0  0  0  0  0  0
  102.9766  147.7481  138.3447 C   0  0  0  0  0  0  0  0  0  0  0  0
   96.3272  143.9707  139.3082 O   0  0  0  0  0  0  0  0  0  0  0  0
  102.6032  146.9281  140.2623 C   0  0  0  0  0  0  0  0  0  0  0  0
  101.8667  147.1725  137.7053 C   0  0  0  0  0  0  0  0  0  0  0  0
   98.8684  145.2558  135.3567 C   0  0  0  0  0  0  0  0  0  0  0  0
  100.8620  145.4072  140.7241 C   0  0  0  0  0  0  0  0  0  0  0  0
   99.9247  145.6313  137.7324 C   0  0  0  0  0  0  0  0  0  0  0  0
   98.6654  145.0386  138.2678 C   0  0  0  0  0  0  0  0  0  0  0  0
  101.0292  146.3435  138.4698 C   0  0  0  0  0  0  0  0  0  0  0  0
   97.6317  144.6198  137.3705 C   0  0  0  0  0  0  0  0  0  0  0  0
   96.4567  144.0077  137.9815 C   0  0  0  0  0  0  0  0  0  0  0  0
   97.7037  144.6507  135.9664 C   0  0  0  0  0  0  0  0  0  0  0  0
   99.8472  143.7058  142.7653 C   0  0  0  0  0  0  0  0  0  0  0  0
   99.0682  143.9402  141.7506 C   0  0  0  0  0  0  0  0  0  0  0  0
  103.3545  147.7081  139.5364 N   0  0  0  0  0  0  0  0  0  0  0  0
   96.6244  144.1924  135.1931 C   0  0  0  0  0  0  0  0  0  0  0  0
   99.5061  144.7000  140.7194 C   0  0  0  0  0  0  0  0  0  0  0  0
   95.5064  143.6327  135.8224 C   0  0  0  0  0  0  0  0  0  0  0  0
   99.8761  145.6797  136.2456 C   0  0  0  0  0  0  0  0  0  0  0  0
  101.6380  145.1037  141.8960 N   0  0  0  0  0  0  0  0  0  0  0  0
   95.4487  143.5795  137.1947 C   0  0  0  0  0  0  0  0  0  0  0  0
  101.4855  146.1620  139.8439 C   0  0  0  0  0  0  0  0  0  0  0  0
  1 10  1  0
  1 19  1  0
  2 15  1  0
  2 22  2  0
  3  6  1  0
  3 17  2  0
  4 13  1  0
  5 17  1  0
  5 24  2  0
  6 11  2  0
  7 14  1  0
  7 21  2  0
  8 19  2  0
  8 22  1  0
  8 24  1  0
  9 10  1  0
  9 11  1  0
  9 21  1  0
 10 12  1  0
 11 24  1  0
 12 13  2  0
 12 14  1  0
 13 23  1  0
 14 18  2  0
 15 16  2  0
 16 19  1  0
 18 20  1  0
 20 23  2  0
M  END
$$$$

     RDKit          3D

 23 26  0  0  0  0  0  0  0  0999 V2000
  102.6920  147.3989  138.9566 C   0  0  0  0  0  0  0  0  0  0  0  0
  101.6078  146.1860  140.5561 C   0  0  0  0  0  0  0  0  0  0  0  0
  103.6993  148.2644  138.7672 C   0  0  0  0  0  0  0  0  0  0  0  0
  100.9637  145.6516  135.6022 O   0  0  0  0  0  0  0  0  0  0  0  0
  102.5907  146.9263  140.3200 C   0  0  0  0  0  0  0  0  0  0  0  0
   98.4997  145.0267  138.1336 C   0  0  0  0  0  0  0  0  0  0  0  0
  100.5480  145.9232  139.8610 C   0  0  0  0  0  0  0  0  0  0  0  0
   96.2855  144.2014  138.0171 C   0  0  0  0  0  0  0  0  0  0  0  0
   96.6021  143.6514  135.3822 C   0  0  0  0  0  0  0  0  0  0  0  0
  101.7912  146.9120  137.9838 C   0  0  0  0  0  0  0  0  0  0  0  0
   95.4581  143.3670  135.9698 C   0  0  0  0  0  0  0  0  0  0  0  0
  100.0949  145.2087  136.3542 C   0  0  0  0  0  0  0  0  0  0  0  0
   99.3059  145.6915  140.3540 C   0  0  0  0  0  0  0  0  0  0  0  0
   95.2864  143.6475  137.3246 C   0  0  0  0  0  0  0  0  0  0  0  0
   98.2471  145.2259  139.4436 C   0  0  0  0  0  0  0  0  0  0  0  0
  101.8888  144.6871  141.6765 O   0  0  0  0  0  0  0  0  0  0  0  0
   97.4712  144.4926  137.3955 C   0  0  0  0  0  0  0  0  0  0  0  0
   99.7553  145.4817  137.6562 C   0  0  0  0  0  0  0  0  0  0  0  0
  101.8841  145.6490  141.5564 C   0  0  0  0  0  0  0  0  0  0  0  0
   97.0870  144.9529  140.0076 C   0  0  0  0  0  0  0  0  0  0  0  0
  100.7355  146.1159  138.4716 C   0  0  0  0  0  0  0  0  0  0  0  0
   97.6261  144.2045  136.0668 C   0  0  0  0  0  0  0  0  0  0  0  0
   96.0960  144.4461  139.2886 C   0  0  0  0  0  0  0  0  0  0  0  0
  1  3  1  0
  1  5  2  0
  1 10  1  0
  2  5  1  0
  2  7  2  0
  2 19  1  0
  4 12  2  0
  6 15  2  0
  6 17  1  0
  6 18  1  0
  7 13  1  0
  7 21  1  0
  8 14  1  0
  8 17  2  0
  8 23  1  0
  9 11  1  0
  9 22  2  0
 10 21  1  0
 11 14  2  0
 12 18  1  0
 13 15  1  0
 15 20  1  0
 16 19  2  0
 17 22  1  0
 18 21  2  0
 20 23  2  0
M  END
$$$$

     RDKit          3D

 23 27  0  0  0  0  0  0  0  0999 V2000
  103.2354  147.0516  139.1021 C   0  0  0  0  0  0  0  0  0  0  0  0
   99.4052  145.5485  139.5486 C   0  0  0  0  0  0  0  0  0  0  0  0
  102.4082  146.8661  138.1028 N   0  0  0  0  0  0  0  0  0  0  0  0
   98.4281  144.8735  136.1476 C   0  0  0  0  0  0  0  0  0  0  0  0
   97.6012  144.4372  138.8009 C   0  0  0  0  0  0  0  0  0  0  0  0
   97.2465  144.1426  136.4310 C   0  0  0  0  0  0  0  0  0  0  0  0
   98.8355  145.0351  138.5404 C   0  0  0  0  0  0  0  0  0  0  0  0
   96.4715  143.5944  135.4326 C   0  0  0  0  0  0  0  0  0  0  0  0
  102.9271  146.5450  140.3624 C   0  0  0  0  0  0  0  0  0  0  0  0
  101.6621  146.0023  140.6001 C   0  0  0  0  0  0  0  0  0  0  0  0
   99.2015  145.3688  137.2022 C   0  0  0  0  0  0  0  0  0  0  0  0
  100.8088  145.8098  139.4433 C   0  0  0  0  0  0  0  0  0  0  0  0
   96.8709  143.9785  137.7145 C   0  0  0  0  0  0  0  0  0  0  0  0
  101.2118  146.2483  138.1945 C   0  0  0  0  0  0  0  0  0  0  0  0
   98.7430  146.8698  139.6249 C   0  0  0  0  0  0  0  0  0  0  0  0
   97.3485  144.4699  140.2650 C   0  0  0  0  0  0  0  0  0  0  0  0
  100.4861  146.0233  137.0889 N   0  0  0  0  0  0  0  0  0  0  0  0
   95.7157  143.2478  138.0666 C   0  0  0  0  0  0  0  0  0  0  0  0
  104.3960  147.6773  138.9321 N   0  0  0  0  0  0  0  0  0  0  0  0
   95.2921  142.9236  135.6786 C   0  0  0  0  0  0  0  0  0  0  0  0
  101.4538  145.6070  141.6591 O   0  0  0  0  0  0  0  0  0  0  0  0
   94.9293  142.6733  136.9925 C   0  0  0  0  0  0  0  0  0  0  0  0
   98.7782  144.9745  140.9091 C   0  0  0  0  0  0  0  0  0  0  0  0
  1  3  1  0
  1  9  2  0
  1 19  1  0
  2  7  1  0
  2 12  1  0
  2 15  1  0
  2 23  1  0
  3 14  2  0
  4  6  1  0
  4 11  2  0
  5  7  2  0
  5 13  1  0
  5 16  1  0
  6  8  1  0
  6 13  2  0
  7 11  1  0
  8 20  2  0
  9 10  1  0
 10 12  1  0
 10 21  2  0
 11 17  1  0
 12 14  1  0
 13 18  1  0
 14 17  1  0
 16 23  1  0
 18 22  2  0
 20 22  1  0
M  END
$$$$

     RDKit          3D

 13 14  0  0  0  0  0  0  0  0999 V2000
   98.9450  144.6421  136.1100 S   0  0  0  0  0  0  0  0  0  0  0  0
  103.5604  147.1651  139.3889 Cl  0  0  0  0  0  0  0  0  0  0  0  0
  100.4685  145.6586  136.8292 C   0  0  0  0  0  0  0  0  0  0  0  0
  101.8040  146.0521  137.4693 C   0  0  0  0  0  0  0  0  0  0  0  0
   97.3655  144.6193  137.4730 C   0  0  0  0  0  0  0  0  0  0  0  0
  100.8431  146.4968  139.3961 C   0  0  0  0  0  0  0  0  0  0  0  0
   97.7557  144.2382  136.4235 C   0  0  0  0  0  0  0  0  0  0  0  0
  102.0313  146.5547  138.7446 C   0  0  0  0  0  0  0  0  0  0  0  0
   99.2526  145.4947  137.9120 C   0  0  0  0  0  0  0  0  0  0  0  0
   99.8565  145.3088  136.8992 C   0  0  0  0  0  0  0  0  0  0  0  0
   96.9072  143.5431  135.6699 O   0  0  0  0  0  0  0  0  0  0  0  0
   98.1183  145.2997  138.2376 C   0  0  0  0  0  0  0  0  0  0  0  0
   99.7382  146.0980  138.7855 C   0  0  0  0  0  0  0  0  0  0  0  0
  1  7  4  0
  1 10  4  0
  2  8  1  0
  3  4  1  0
  3 10  1  0
  4  8  4  0
  5  7  4  0
  5 12  4  0
  6  8  4  0
  6 13  4  0
  7 11  1  0
  9 10  4  0
  9 12  4  0
  9 13  1  0
M  END
$$$$

     RDKit          3D

 11 11  0  0  0  0  0  0  0  0999 V2000
   98.0901  144.5233  135.9960 C   0  0  0  0  0  0  0  0  0  0  0  0
   96.6386  143.5850  135.6906 O   0  0  0  0  0  0  0  0  0  0  0  0
   99.5543  145.6924  137.5357 C   0  0  0  0  0  0  0  0  0  0  0  0
  100.7390  145.7780  136.8850 C   0  0  0  0  0  0  0  0  0  0  0  0
  100.6427  146.2708  139.5231 C   0  0  0  0  0  0  0  0  0  0  0  0
   96.9832  144.4076  135.8512 N   0  0  0  0  0  0  0  0  0  0  0  0
  101.8640  146.3096  138.8888 C   0  0  0  0  0  0  0  0  0  0  0  0
   99.4578  145.9788  138.8803 C   0  0  0  0  0  0  0  0  0  0  0  0
   98.3872  145.3915  136.9741 C   0  0  0  0  0  0  0  0  0  0  0  0
  102.9600  146.6982  139.6908 O   0  0  0  0  0  0  0  0  0  0  0  0
  101.8378  146.0821  137.5442 C   0  0  0  0  0  0  0  0  0  0  0  0
  1  6  1  0
  1  9  1  0
  2  6  1  0
  3  4  2  0
  3  8  1  0
  3  9  1  0
  4 11  1  0
  5  7  1  0
  5  8  2  0
  7 10  1  0
  7 11  2  0
M  END
$$$$

     RDKit          3D

 12 13  0  0  0  0  0  0  0  0999 V2000
  101.8658  146.4106  137.7531 C   0  0  0  0  0  0  0  0  0  0  0  0
   98.5045  145.1231  137.1894 C   0  0  0  0  0  0  0  0  0  0  0  0
  100.7823  145.8783  137.1057 C   0  0  0  0  0  0  0  0  0  0  0  0
  100.5874  146.5701  139.7681 C   0  0  0  0  0  0  0  0  0  0  0  0
   99.5957  145.6885  137.7913 C   0  0  0  0  0  0  0  0  0  0  0  0
  103.2171  147.3967  139.8397 Cl  0  0  0  0  0  0  0  0  0  0  0  0
   96.6862  144.1007  136.9351 N   0  0  0  0  0  0  0  0  0  0  0  0
   98.1913  145.1251  135.7936 C   0  0  0  0  0  0  0  0  0  0  0  0
   99.4899  146.0436  139.1146 C   0  0  0  0  0  0  0  0  0  0  0  0
   97.5489  144.4710  137.8328 N   0  0  0  0  0  0  0  0  0  0  0  0
  101.7871  146.7492  139.0732 C   0  0  0  0  0  0  0  0  0  0  0  0
   97.0068  144.4686  135.6793 C   0  0  0  0  0  0  0  0  0  0  0  0
  1  3  2  0
  1 11  1  0
  2  5  1  0
  2  8  2  0
  2 10  1  0
  3  5  1  0
  4  9  1  0
  4 11  2  0
  5  9  2  0
  6 11  1  0
  7 10  1  0
  7 12  2  0
  8 12  1  0
M  END
$$$$

     RDKit          3D

 13 14  0  0  0  0  0  0  0  0999 V2000
   99.1025  144.6340  136.0815 C   0  0  0  0  0  0  0  0  0  0  0  0
  101.2284  146.0181  137.4631 C   0  0  0  0  0  0  0  0  0  0  0  0
  100.0194  145.7590  138.0808 C   0  0  0  0  0  0  0  0  0  0  0  0
  100.9403  146.5214  140.1418 C   0  0  0  0  0  0  0  0  0  0  0  0
   97.9172  144.1798  135.6682 N   0  0  0  0  0  0  0  0  0  0  0  0
   96.9851  144.5011  136.6281 N   0  0  0  0  0  0  0  0  0  0  0  0
  102.3076  146.5130  138.1724 C   0  0  0  0  0  0  0  0  0  0  0  0
   98.8855  145.2203  137.3246 C   0  0  0  0  0  0  0  0  0  0  0  0
   95.5699  144.2049  136.5319 C   0  0  0  0  0  0  0  0  0  0  0  0
  103.1592  147.2315  140.2039 F   0  0  0  0  0  0  0  0  0  0  0  0
   99.8707  146.0209  139.4217 C   0  0  0  0  0  0  0  0  0  0  0  0
  102.1434  146.7549  139.5127 C   0  0  0  0  0  0  0  0  0  0  0  0
   97.5873  145.1584  137.6924 C   0  0  0  0  0  0  0  0  0  0  0  0
  1  5  2  0
  1  8  1  0
  2  3  2  0
  2  7  1  0
  3  8  1  0
  3 11  1  0
  4 11  2  0
  4 12  1  0
  5  6  1  0
  6  9  1  0
  6 13  1  0
  7 12  2  0
  8 13  2  0
 10 12  1  0
M  END
$$$$

     RDKit          3D

 21 23  0  0  0  0  0  0  0  0999 V2000
   99.6144  145.8020  137.4027 C   0  0  0  0  0  0  0  0  0  0  0  0
  103.6858  147.5987  139.7179 C   0  0  0  0  0  0  0  0  0  0  0  0
   99.1826  144.9873  139.6703 C   0  0  0  0  0  0  0  0  0  0  0  0
   97.3293  143.9423  139.7942 O   0  0  0  0  0  0  0  0  0  0  0  0
   98.4077  145.2097  136.8507 C   0  0  0  0  0  0  0  0  0  0  0  0
   97.5699  144.5287  137.6962 C   0  0  0  0  0  0  0  0  0  0  0  0
   96.9243  144.7122  135.0576 C   0  0  0  0  0  0  0  0  0  0  0  0
   95.0216  143.4330  135.3228 O   0  0  0  0  0  0  0  0  0  0  0  0
  102.4708  147.0079  139.5127 C   0  0  0  0  0  0  0  0  0  0  0  0
  101.4564  146.9033  138.4262 C   0  0  0  0  0  0  0  0  0  0  0  0
   97.8990  144.4696  138.9850 C   0  0  0  0  0  0  0  0  0  0  0  0
   99.9213  145.6212  138.6738 C   0  0  0  0  0  0  0  0  0  0  0  0
   96.0947  144.0170  135.8837 C   0  0  0  0  0  0  0  0  0  0  0  0
  100.4850  145.9657  136.5461 O   0  0  0  0  0  0  0  0  0  0  0  0
   99.7028  144.8745  140.7202 N   0  0  0  0  0  0  0  0  0  0  0  0
   96.4063  143.9596  137.2010 C   0  0  0  0  0  0  0  0  0  0  0  0
   98.0611  145.2806  135.5436 C   0  0  0  0  0  0  0  0  0  0  0  0
  100.7152  145.5767  140.4815 C   0  0  0  0  0  0  0  0  0  0  0  0
  101.6113  145.8938  141.5387 C   0  0  0  0  0  0  0  0  0  0  0  0
   99.2259  144.4038  141.8418 O   0  0  0  0  0  0  0  0  0  0  0  0
  100.8361  146.2414  139.2664 C   0  0  0  0  0  0  0  0  0  0  0  0
  1  5  4  0
  1 12  4  0
  1 14  1  0
  2  9  1  0
  3 11  4  0
  3 12  4  0
  3 15  1  0
  4 11  2  0
  5  6  4  0
  5 17  4  0
  6 11  4  0
  6 16  4  0
  7 13  4  0
  7 17  4  0
  8 13  1  0
  9 10  1  0
 10 21  1  0
 12 21  1  0
 13 16  4  0
 15 18  1  0
 15 20  1  0
 18 19  1  0
 18 21  2  0
M  END
$$$$

     RDKit          3D

 18 21  0  0  0  0  0  0  0  0999 V2000
   96.3600  143.8390  138.0503 C   0  0  0  0  0  0  0  0  0  0  0  0
   98.2048  144.7416  139.2252 N   0  0  0  0  0  0  0  0  0  0  0  0
   98.1117  144.8801  136.9180 C   0  0  0  0  0  0  0  0  0  0  0  0
   95.7613  143.5523  136.8920 C   0  0  0  0  0  0  0  0  0  0  0  0
  100.2079  145.5872  140.2833 C   0  0  0  0  0  0  0  0  0  0  0  0
  102.4925  146.5226  140.9918 C   0  0  0  0  0  0  0  0  0  0  0  0
   94.5927  142.8912  136.6874 O   0  0  0  0  0  0  0  0  0  0  0  0
  101.4635  146.1931  140.1619 C   0  0  0  0  0  0  0  0  0  0  0  0
  101.1293  146.5141  137.7830 C   0  0  0  0  0  0  0  0  0  0  0  0
  103.4429  147.1391  140.3260 C   0  0  0  0  0  0  0  0  0  0  0  0
  103.1190  147.2774  139.0287 N   0  0  0  0  0  0  0  0  0  0  0  0
   99.2477  145.5544  136.8463 N   0  0  0  0  0  0  0  0  0  0  0  0
   99.4075  145.3931  139.1631 C   0  0  0  0  0  0  0  0  0  0  0  0
  101.8607  146.6906  138.8834 C   0  0  0  0  0  0  0  0  0  0  0  0
   97.5368  144.4940  138.0653 C   0  0  0  0  0  0  0  0  0  0  0  0
   99.8803  145.7899  137.8845 C   0  0  0  0  0  0  0  0  0  0  0  0
   97.4955  144.5800  135.7953 C   0  0  0  0  0  0  0  0  0  0  0  0
   96.3590  143.9219  135.8341 C   0  0  0  0  0  0  0  0  0  0  0  0
  1  4  2  0
  1 15  1  0
  2 13  2  0
  2 15  1  0
  3 12  1  0
  3 15  2  0
  3 17  1  0
  4  7  1  0
  4 18  1  0
  5  8  2  0
  5 13  1  0
  6  8  1  0
  6 10  2  0
  8 14  1  0
  9 14  1  0
  9 16  2  0
 10 11  1  0
 11 14  2  0
 12 16  1  0
 13 16  1  0
 17 18  2  0
M  END
$$$$

     RDKit          3D

 15 16  0  0  0  0  0  0  0  0999 V2000
  102.4793  146.5251  137.8935 C   0  0  0  0  0  0  0  0  0  0  0  0
   96.9318  145.2456  138.2772 C   0  0  0  0  0  0  0  0  0  0  0  0
   98.2686  145.3972  137.9945 C   0  0  0  0  0  0  0  0  0  0  0  0
   96.1345  144.4885  137.4394 C   0  0  0  0  0  0  0  0  0  0  0  0
  100.3335  146.3389  138.9610 C   0  0  0  0  0  0  0  0  0  0  0  0
   96.6529  143.9398  136.2963 C   0  0  0  0  0  0  0  0  0  0  0  0
  102.3017  146.8134  140.2574 C   0  0  0  0  0  0  0  0  0  0  0  0
   98.9689  146.1828  138.8574 N   0  0  0  0  0  0  0  0  0  0  0  0
   98.7843  144.7879  136.8607 C   0  0  0  0  0  0  0  0  0  0  0  0
  104.4622  147.0128  139.2113 N   0  0  0  0  0  0  0  0  0  0  0  0
   95.5748  142.9852  135.3533 Cl  0  0  0  0  0  0  0  0  0  0  0  0
  101.1117  146.3277  137.8183 C   0  0  0  0  0  0  0  0  0  0  0  0
  100.9399  146.6153  140.1848 C   0  0  0  0  0  0  0  0  0  0  0  0
  103.0734  146.7997  139.1085 C   0  0  0  0  0  0  0  0  0  0  0  0
   97.9820  144.1257  135.9695 C   0  0  0  0  0  0  0  0  0  0  0  0
  1 12  2  0
  1 14  1  0
  2  3  2  0
  2  4  1  0
  3  8  1  0
  3  9  1  0
  4  6  2  0
  5  8  1  0
  5 12  1  0
  5 13  2  0
  6 11  1  0
  6 15  1  0
  7 13  1  0
  7 14  2  0
  9 15  2  0
 10 14  1  0
M  END
$$$$

     RDKit          3D

  8  7  0  0  0  0  0  0  0  0999 V2000
   99.4922  144.8970  136.6405 C   0  0  0  0  0  0  0  0  0  0  0  0
  101.6723  147.1700  138.8948 C   0  0  0  0  0  0  0  0  0  0  0  0
  101.4088  146.1599  137.8174 C   0  0  0  0  0  0  0  0  0  0  0  0
   98.1987  144.9502  135.8967 C   0  0  0  0  0  0  0  0  0  0  0  0
   97.2230  143.8624  136.2348 C   0  0  0  0  0  0  0  0  0  0  0  0
   95.8900  143.8643  135.5690 C   0  0  0  0  0  0  0  0  0  0  0  0
  103.1164  147.5193  139.1490 C   0  0  0  0  0  0  0  0  0  0  0  0
   99.9781  146.2169  137.2648 C   0  0  0  0  0  0  0  0  0  0  0  0
  1  4  1  0
  1  8  1  0
  2  3  1  0
  2  7  1  0
  3  8  1  0
  4  5  1  0
  5  6  1  0
M  END
$$$$

     RDKit          3D

 12 13  0  0  0  0  0  0  0  0999 V2000
   97.5536  144.3453  136.9530 C   0  0  0  0  0  0  0  0  0  0  0  0
   99.7884  145.3419  139.9114 C   0  0  0  0  0  0  0  0  0  0  0  0
  103.1695  146.9833  139.2200 O   0  0  0  0  0  0  0  0  0  0  0  0
   99.2415  145.1393  138.5443 C   0  0  0  0  0  0  0  0  0  0  0  0
   98.3345  144.8357  135.8791 C   0  0  0  0  0  0  0  0  0  0  0  0
   99.5732  145.4647  136.1370 C   0  0  0  0  0  0  0  0  0  0  0  0
   98.0192  144.5040  138.2648 C   0  0  0  0  0  0  0  0  0  0  0  0
   96.3579  143.7180  136.6992 O   0  0  0  0  0  0  0  0  0  0  0  0
  101.9150  146.4297  139.0461 C   0  0  0  0  0  0  0  0  0  0  0  0
  100.0733  145.6332  137.4583 C   0  0  0  0  0  0  0  0  0  0  0  0
  101.0753  145.9497  140.1574 C   0  0  0  0  0  0  0  0  0  0  0  0
  101.3450  146.2443  137.7188 C   0  0  0  0  0  0  0  0  0  0  0  0
  1  5  2  0
  1  7  1  0
  1  8  1  0
  2  4  1  0
  2 11  2  0
  3  9  1  0
  4  7  2  0
  4 10  1  0
  5  6  1  0
  6 10  2  0
  9 11  1  0
  9 12  2  0
 10 12  1  0
M  END
$$$$

     RDKit          3D

 11 12  0  0  0  0  0  0  0  0999 V2000
   99.3182  145.4024  135.9854 C   0  0  0  0  0  0  0  0  0  0  0  0
   98.3597  146.0516  138.5166 C   0  0  0  0  0  0  0  0  0  0  0  0
   97.5045  145.5132  137.5790 C   0  0  0  0  0  0  0  0  0  0  0  0
   97.0916  144.6759  135.4441 O   0  0  0  0  0  0  0  0  0  0  0  0
  101.9831  146.8215  138.3888 C   0  0  0  0  0  0  0  0  0  0  0  0
  100.7703  146.7949  139.0414 C   0  0  0  0  0  0  0  0  0  0  0  0
  101.5906  146.2889  137.0863 N   0  0  0  0  0  0  0  0  0  0  0  0
  103.3502  147.2721  138.8452 C   0  0  0  0  0  0  0  0  0  0  0  0
   99.6856  146.2648  138.2035 C   0  0  0  0  0  0  0  0  0  0  0  0
  100.1813  145.9407  136.9250 C   0  0  0  0  0  0  0  0  0  0  0  0
   97.9942  145.2124  136.3332 C   0  0  0  0  0  0  0  0  0  0  0  0
  1 10  4  0
  1 11  4  0
  2  3  4  0
  2  9  4  0
  3 11  4  0
  4 11  1  0
  5  6  1  0
  5  7  1  0
  5  8  1  0
  6  9  1  0
  7 10  2  0
  9 10  4  0
M  END
$$$$

     RDKit          3D

 10 10  0  0  0  0  0  0  0  0999 V2000
   96.9246  144.5538  136.9111 C   0  0  0  0  0  0  0  0  0  0  0  0
   98.1196  145.7931  135.4719 C   0  0  0  0  0  0  0  0  0  0  0  0
   98.6821  146.0253  137.5921 C   0  0  0  0  0  0  0  0  0  0  0  0
   97.7460  145.1230  137.8777 C   0  0  0  0  0  0  0  0  0  0  0  0
  101.6797  147.4852  139.4426 C   0  0  0  0  0  0  0  0  0  0  0  0
   99.5044  146.6269  138.6722 C   0  0  0  0  0  0  0  0  0  0  0  0
  100.9458  146.6638  138.4599 C   0  0  0  0  0  0  0  0  0  0  0  0
  103.0987  147.2650  139.6302 N   0  0  0  0  0  0  0  0  0  0  0  0
   98.8504  146.4163  136.3381 C   0  0  0  0  0  0  0  0  0  0  0  0
   97.1479  144.8752  135.7147 C   0  0  0  0  0  0  0  0  0  0  0  0
  1  4  2  0
  1 10  1  0
  2  9  1  0
  2 10  2  0
  3  4  1  0
  3  6  1  0
  3  9  2  0
  5  7  1  0
  5  8  1  0
  6  7  1  0
M  END
$$$$

     RDKit          3D

 13 14  0  0  0  0  0  0  0  0999 V2000
  101.2589  146.1465  137.9289 C   0  0  0  0  0  0  0  0  0  0  0  0
   98.8342  145.9963  136.5323 C   0  0  0  0  0  0  0  0  0  0  0  0
  101.6292  146.7008  140.2597 C   0  0  0  0  0  0  0  0  0  0  0  0
  102.9990  146.7451  140.0311 C   0  0  0  0  0  0  0  0  0  0  0  0
  102.6183  146.2004  137.7230 C   0  0  0  0  0  0  0  0  0  0  0  0
  103.4890  146.4895  138.7503 C   0  0  0  0  0  0  0  0  0  0  0  0
   98.0894  144.0707  136.0828 C   0  0  0  0  0  0  0  0  0  0  0  0
   97.0839  145.2814  135.7861 N   0  0  0  0  0  0  0  0  0  0  0  0
   96.0884  144.2426  135.5502 C   0  0  0  0  0  0  0  0  0  0  0  0
  100.7986  146.3989  139.2052 C   0  0  0  0  0  0  0  0  0  0  0  0
  100.2570  145.8622  136.8732 C   0  0  0  0  0  0  0  0  0  0  0  0
   98.0198  145.1301  136.1201 N   0  0  0  0  0  0  0  0  0  0  0  0
   96.7816  143.4403  135.8764 C   0  0  0  0  0  0  0  0  0  0  0  0
  1  5  1  0
  1 10  2  0
  1 11  1  0
  2 11  1  0
  2 12  1  0
  3  4  2  0
  3 10  1  0
  4  6  1  0
  5  6  2  0
  7 12  1  0
  7 13  2  0
  8  9  2  0
  8 12  1  0
  9 13  1  0
M  END
$$$$

     RDKit          3D

 13 14  0  0  0  0  0  0  0  0999 V2000
  101.1661  147.0884  139.7198 C   0  0  0  0  0  0  0  0  0  0  0  0
   99.8450  146.8276  139.4964 C   0  0  0  0  0  0  0  0  0  0  0  0
   96.6110  143.6250  135.5701 O   0  0  0  0  0  0  0  0  0  0  0  0
   99.9839  144.9943  136.2418 C   0  0  0  0  0  0  0  0  0  0  0  0
   97.2231  145.0518  137.3386 C   0  0  0  0  0  0  0  0  0  0  0  0
  100.3929  145.7834  137.4246 C   0  0  0  0  0  0  0  0  0  0  0  0
   97.5707  144.4133  136.1673 C   0  0  0  0  0  0  0  0  0  0  0  0
   99.3641  146.1692  138.3821 C   0  0  0  0  0  0  0  0  0  0  0  0
  101.6838  146.1079  137.7200 C   0  0  0  0  0  0  0  0  0  0  0  0
   98.9263  144.4210  135.7681 C   0  0  0  0  0  0  0  0  0  0  0  0
   98.0338  145.7729  138.1502 C   0  0  0  0  0  0  0  0  0  0  0  0
  103.3312  147.0457  139.1533 O   0  0  0  0  0  0  0  0  0  0  0  0
  102.0714  146.7773  138.8095 C   0  0  0  0  0  0  0  0  0  0  0  0
  1  2  4  0
  1 13  4  0
  2  8  4  0
  3  7  1  0
  4  6  4  0
  4 10  4  0
  5  7  4  0
  5 11  4  0
  6  8  4  0
  6  9  4  0
  7 10  4  0
  8 11  4  0
  9 13  4  0
 12 13  1  0
M  END
$$$$

     RDKit          3D

 22 26  0  0  0  0  0  0  0  0999 V2000
  102.7627  146.6073  140.7425 C   0  0  0  0  0  0  0  0  0  0  0  0
  100.3172  146.2765  136.6260 C   0  0  0  0  0  0  0  0  0  0  0  0
   98.3205  145.1003  136.4078 C   0  0  0  0  0  0  0  0  0  0  0  0
  102.5178  147.3275  138.5677 C   0  0  0  0  0  0  0  0  0  0  0  0
   96.2310  143.7808  137.4958 C   0  0  0  0  0  0  0  0  0  0  0  0
   99.2932  145.7979  135.8523 C   0  0  0  0  0  0  0  0  0  0  0  0
   97.2467  144.2210  138.2764 C   0  0  0  0  0  0  0  0  0  0  0  0
   99.5581  144.9463  139.8919 C   0  0  0  0  0  0  0  0  0  0  0  0
   98.3385  144.8750  137.7797 C   0  0  0  0  0  0  0  0  0  0  0  0
   96.2642  143.9682  136.1580 C   0  0  0  0  0  0  0  0  0  0  0  0
  100.4103  146.0896  137.9656 C   0  0  0  0  0  0  0  0  0  0  0  0
  101.3015  144.6469  142.9674 C   0  0  0  0  0  0  0  0  0  0  0  0
  100.5955  145.3543  140.6647 C   0  0  0  0  0  0  0  0  0  0  0  0
   95.2136  143.5078  135.4350 O   0  0  0  0  0  0  0  0  0  0  0  0
   97.3359  144.6075  135.6033 C   0  0  0  0  0  0  0  0  0  0  0  0
  103.2338  147.6461  139.8220 C   0  0  0  0  0  0  0  0  0  0  0  0
   98.8047  144.0939  140.7015 C   0  0  0  0  0  0  0  0  0  0  0  0
  101.4606  146.5062  138.8044 C   0  0  0  0  0  0  0  0  0  0  0  0
   99.4059  145.3297  138.5666 C   0  0  0  0  0  0  0  0  0  0  0  0
  101.5602  146.1204  140.0982 C   0  0  0  0  0  0  0  0  0  0  0  0
  100.5031  144.6865  141.8727 N   0  0  0  0  0  0  0  0  0  0  0  0
   99.3285  144.0045  141.8119 N   0  0  0  0  0  0  0  0  0  0  0  0
  1 16  1  0
  1 20  1  0
  2  6  2  0
  2 11  1  0
  3  6  1  0
  3  9  2  0
  3 15  1  0
  4 16  1  0
  4 18  1  0
  5  7  2  0
  5 10  1  0
  7  9  1  0
  8 13  1  0
  8 17  1  0
  8 19  2  0
  9 19  1  0
 10 14  1  0
 10 15  2  0
 11 18  2  0
 11 19  1  0
 12 21  1  0
 13 20  2  0
 13 21  1  0
 17 22  2  0
 18 20  1  0
 21 22  1  0
M  END
$$$$

     RDKit          3D

  8  7  0  0  0  0  0  0  0  0999 V2000
   99.8544  145.0999  136.4963 C   0  0  0  0  0  0  0  0  0  0  0  0
  101.7502  146.2550  137.8844 C   0  0  0  0  0  0  0  0  0  0  0  0
  102.0868  147.1906  138.9990 C   0  0  0  0  0  0  0  0  0  0  0  0
  100.2896  146.2493  137.4739 C   0  0  0  0  0  0  0  0  0  0  0  0
   97.5710  144.1589  136.1021 C   0  0  0  0  0  0  0  0  0  0  0  0
   96.1682  144.3028  135.6387 C   0  0  0  0  0  0  0  0  0  0  0  0
   98.4574  145.3662  135.9150 C   0  0  0  0  0  0  0  0  0  0  0  0
  103.4206  147.6701  138.9675 O   0  0  0  0  0  0  0  0  0  0  0  0
  1  4  1  0
  1  7  1  0
  2  3  1  0
  2  4  1  0
  3  8  1  0
  5  6  1  0
  5  7  1  0
M  END
$$$$

     RDKit          3D

 12 13  0  0  0  0  0  0  0  0999 V2000
  103.3894  147.0484  139.4345 N   0  0  0  0  0  0  0  0  0  0  0  0
   97.4626  145.1491  137.6540 C   0  0  0  0  0  0  0  0  0  0  0  0
   99.8772  145.9636  138.9729 C   0  0  0  0  0  0  0  0  0  0  0  0
   98.6381  144.2861  135.9241 N   0  0  0  0  0  0  0  0  0  0  0  0
   96.5993  144.4679  136.8324 N   0  0  0  0  0  0  0  0  0  0  0  0
   99.8616  145.4928  137.6696 C   0  0  0  0  0  0  0  0  0  0  0  0
  101.0481  145.6122  136.9232 C   0  0  0  0  0  0  0  0  0  0  0  0
  101.0473  146.4669  139.5654 C   0  0  0  0  0  0  0  0  0  0  0  0
  102.2064  146.1055  137.5139 C   0  0  0  0  0  0  0  0  0  0  0  0
   97.3566  144.0012  135.8342 N   0  0  0  0  0  0  0  0  0  0  0  0
  102.2184  146.5400  138.8299 C   0  0  0  0  0  0  0  0  0  0  0  0
   98.7072  145.0207  137.1027 C   0  0  0  0  0  0  0  0  0  0  0  0
  1 11  1  0
  2  5  1  0
  2 12  2  0
  3  6  2  0
  3  8  1  0
  4 10  2  0
  4 12  1  0
  5 10  1  0
  6  7  1  0
  6 12  1  0
  7  9  2  0
  8 11  2  0
  9 11  1  0
M  END
$$$$

     RDKit          3D

 11 12  0  0  0  0  0  0  0  0999 V2000
  100.0502  145.5162  137.0127 C   0  0  0  0  0  0  0  0  0  0  0  0
  101.3315  146.0112  137.0303 C   0  0  0  0  0  0  0  0  0  0  0  0
  100.6850  146.3083  139.0379 O   0  0  0  0  0  0  0  0  0  0  0  0
  103.0567  147.0566  138.9111 N   0  0  0  0  0  0  0  0  0  0  0  0
  101.7804  146.5125  138.1838 C   0  0  0  0  0  0  0  0  0  0  0  0
   96.9241  143.8814  135.5750 O   0  0  0  0  0  0  0  0  0  0  0  0
   99.6540  145.7084  138.2578 C   0  0  0  0  0  0  0  0  0  0  0  0
   97.9426  144.4800  136.3507 C   0  0  0  0  0  0  0  0  0  0  0  0
   99.2440  144.9335  136.0491 C   0  0  0  0  0  0  0  0  0  0  0  0
   97.6188  144.7270  137.6781 C   0  0  0  0  0  0  0  0  0  0  0  0
   98.4019  145.3184  138.6466 C   0  0  0  0  0  0  0  0  0  0  0  0
  1  2  1  0
  1  7  2  0
  1  9  1  0
  2  5  2  0
  3  5  1  0
  3  7  1  0
  4  5  1  0
  6  8  1  0
  7 11  1  0
  8  9  2  0
  8 10  1  0
 10 11  2  0
M  END
$$$$

     RDKit          3D

 12 12  0  0  0  0  0  0  0  0999 V2000
  102.0847  146.1749  137.9514 C   0  0  0  0  0  0  0  0  0  0  0  0
   96.6228  143.8615  135.9218 C   0  0  0  0  0  0  0  0  0  0  0  0
  101.1331  147.2687  139.7422 C   0  0  0  0  0  0  0  0  0  0  0  0
  102.7021  147.7114  139.7587 S   0  0  0  0  0  0  0  0  0  0  0  0
   99.6413  146.0186  138.0594 N   0  0  0  0  0  0  0  0  0  0  0  0
   96.5370  144.3299  136.1234 O   0  0  0  0  0  0  0  0  0  0  0  0
   95.6836  143.2620  135.6027 S   0  0  0  0  0  0  0  0  0  0  0  0
  103.1392  146.9222  138.3805 C   0  0  0  0  0  0  0  0  0  0  0  0
   98.3937  145.1557  136.7753 C   0  0  0  0  0  0  0  0  0  0  0  0
   97.7539  144.1597  136.1266 C   0  0  0  0  0  0  0  0  0  0  0  0
   99.4489  145.2642  137.2858 N   0  0  0  0  0  0  0  0  0  0  0  0
  100.9995  146.4490  138.7202 C   0  0  0  0  0  0  0  0  0  0  0  0
  1  8  2  0
  1 12  1  0
  2  6  1  0
  2  7  2  0
  2 10  1  0
  3  4  1  0
  3 12  2  0
  4  8  1  0
  5 11  1  0
  5 12  1  0
  9 10  2  3
  9 11  1  0
M  END
$$$$

     RDKit          3D

 19 22  0  0  0  0  0  0  0  0999 V2000
   98.2801  144.8868  139.8244 C   0  0  0  0  0  0  0  0  0  0  0  0
   99.0509  145.4933  137.6185 C   0  0  0  0  0  0  0  0  0  0  0  0
  100.9705  146.3904  138.1238 C   0  0  0  0  0  0  0  0  0  0  0  0
   95.7770  143.9795  137.4972 C   0  0  0  0  0  0  0  0  0  0  0  0
   97.8963  145.0181  137.1008 C   0  0  0  0  0  0  0  0  0  0  0  0
   99.2481  145.4214  138.9840 C   0  0  0  0  0  0  0  0  0  0  0  0
   95.4914  144.0001  136.1181 C   0  0  0  0  0  0  0  0  0  0  0  0
   96.4521  144.5599  135.2579 C   0  0  0  0  0  0  0  0  0  0  0  0
  101.0973  145.9633  140.4494 C   0  0  0  0  0  0  0  0  0  0  0  0
  102.8073  147.1358  139.2978 C   0  0  0  0  0  0  0  0  0  0  0  0
  103.9351  147.7645  139.2792 N   0  0  0  0  0  0  0  0  0  0  0  0
  102.1530  146.9520  138.1722 N   0  0  0  0  0  0  0  0  0  0  0  0
   97.6890  145.0812  135.7338 C   0  0  0  0  0  0  0  0  0  0  0  0
  100.1657  146.0730  137.1289 N   0  0  0  0  0  0  0  0  0  0  0  0
   96.9601  144.4725  137.9770 C   0  0  0  0  0  0  0  0  0  0  0  0
  100.6842  145.4521  141.4114 O   0  0  0  0  0  0  0  0  0  0  0  0
  100.4371  145.9644  139.2443 C   0  0  0  0  0  0  0  0  0  0  0  0
  102.3390  146.6532  140.4418 C   0  0  0  0  0  0  0  0  0  0  0  0
   97.1573  144.4115  139.2949 C   0  0  0  0  0  0  0  0  0  0  0  0
  1  6  1  0
  1 19  2  0
  2  5  1  0
  2  6  1  0
  2 14  1  0
  3 12  1  0
  3 14  2  0
  3 17  1  0
  4  7  1  0
  4 15  2  0
  5 13  2  0
  5 15  1  0
  6 17  2  0
  7  8  2  0
  8 13  1  0
  9 16  2  0
  9 17  1  0
  9 18  1  0
 10 11  1  0
 10 12  2  0
 10 18  1  0
 15 19  1  0
M  END
$$$$

     RDKit          3D

 11 12  0  0  0  0  0  0  0  0999 V2000
   99.7256  146.5136  138.7916 C   0  0  0  0  0  0  0  0  0  0  0  0
   99.5541  145.4388  136.7986 C   0  0  0  0  0  0  0  0  0  0  0  0
  100.9067  146.5878  138.3136 C   0  0  0  0  0  0  0  0  0  0  0  0
   97.5140  145.4926  137.9539 C   0  0  0  0  0  0  0  0  0  0  0  0
  102.1644  147.0358  138.8013 C   0  0  0  0  0  0  0  0  0  0  0  0
   97.6322  144.4446  135.8190 C   0  0  0  0  0  0  0  0  0  0  0  0
   98.9868  144.7591  135.7111 C   0  0  0  0  0  0  0  0  0  0  0  0
   96.9028  144.7846  136.9182 C   0  0  0  0  0  0  0  0  0  0  0  0
   98.8300  145.8316  137.9254 C   0  0  0  0  0  0  0  0  0  0  0  0
  103.1578  147.4014  139.2739 N   0  0  0  0  0  0  0  0  0  0  0  0
  100.8897  145.9467  137.0034 N   0  0  0  0  0  0  0  0  0  0  0  0
  1  3  2  0
  1  9  1  0
  2  7  1  0
  2  9  2  0
  2 11  1  0
  3  5  1  0
  3 11  1  0
  4  8  2  0
  4  9  1  0
  5 10  3  0
  6  7  2  0
  6  8  1  0
M  END
$$$$

     RDKit          3D

 12 12  0  0  0  0  0  0  0  0999 V2000
  102.0807  146.6777  138.9453 C   0  0  0  0  0  0  0  0  0  0  0  0
  100.7610  145.6818  136.2757 C   0  0  0  0  0  0  0  0  0  0  0  0
  103.3322  146.9803  138.9569 N   0  0  0  0  0  0  0  0  0  0  0  0
   98.7268  145.5032  138.2221 C   0  0  0  0  0  0  0  0  0  0  0  0
   96.3287  144.1886  137.2823 O   0  0  0  0  0  0  0  0  0  0  0  0
   99.4721  145.1712  135.9305 C   0  0  0  0  0  0  0  0  0  0  0  0
  101.0298  146.6830  139.2979 N   0  0  0  0  0  0  0  0  0  0  0  0
   97.1884  144.5882  136.5620 C   0  0  0  0  0  0  0  0  0  0  0  0
  100.9955  146.0548  137.6433 C   0  0  0  0  0  0  0  0  0  0  0  0
   98.4642  145.1064  136.9171 C   0  0  0  0  0  0  0  0  0  0  0  0
  100.0152  145.8927  138.5909 C   0  0  0  0  0  0  0  0  0  0  0  0
   96.6771  144.4874  135.4098 O   0  0  0  0  0  0  0  0  0  0  0  0
  1  3  1  0
  1  7  1  0
  2  6  2  0
  2  9  1  0
  4 10  2  0
  4 11  1  0
  5  8  2  0
  6 10  1  0
  7 11  1  0
  8 10  1  0
  8 12  1  0
  9 11  2  0
M  END
$$$$

     RDKit          3D

  9  8  0  0  0  0  0  0  0  0999 V2000
  101.2356  146.8413  138.5254 N   0  0  0  0  0  0  0  0  0  0  0  0
  102.5405  146.7692  138.7563 C   0  0  0  0  0  0  0  0  0  0  0  0
   95.6682  143.8340  135.4260 C   0  0  0  0  0  0  0  0  0  0  0  0
   99.0633  145.2671  136.0244 C   0  0  0  0  0  0  0  0  0  0  0  0
   99.4728  146.3468  137.0158 C   0  0  0  0  0  0  0  0  0  0  0  0
  100.7846  146.1127  137.5720 C   0  0  0  0  0  0  0  0  0  0  0  0
   97.5730  145.2573  135.8790 C   0  0  0  0  0  0  0  0  0  0  0  0
   97.0628  143.8561  135.9164 C   0  0  0  0  0  0  0  0  0  0  0  0
  103.2017  147.8182  139.5920 C   0  0  0  0  0  0  0  0  0  0  0  0
  1  2  1  0
  1  6  2  3
  2  9  1  0
  3  8  1  0
  4  5  1  0
  4  7  1  0
  5  6  1  0
  7  8  1  0
M  END
$$$$

     RDKit          3D

 12 13  0  0  0  0  0  0  0  0999 V2000
   97.9243  144.8635  137.7218 C   0  0  0  0  0  0  0  0  0  0  0  0
  101.5201  146.8508  138.7959 C   0  0  0  0  0  0  0  0  0  0  0  0
   97.5974  144.6165  136.3873 C   0  0  0  0  0  0  0  0  0  0  0  0
   99.0803  145.5370  138.1143 C   0  0  0  0  0  0  0  0  0  0  0  0
  102.7385  147.4831  139.1304 O   0  0  0  0  0  0  0  0  0  0  0  0
   96.4484  143.9284  135.9957 O   0  0  0  0  0  0  0  0  0  0  0  0
   99.4798  145.8255  139.5147 C   0  0  0  0  0  0  0  0  0  0  0  0
  100.6362  146.4467  139.8062 C   0  0  0  0  0  0  0  0  0  0  0  0
   99.9400  145.9586  137.0953 C   0  0  0  0  0  0  0  0  0  0  0  0
  101.1428  146.5991  137.4719 C   0  0  0  0  0  0  0  0  0  0  0  0
   98.4746  145.0648  135.4210 C   0  0  0  0  0  0  0  0  0  0  0  0
   99.6183  145.7276  135.7652 C   0  0  0  0  0  0  0  0  0  0  0  0
  1  3  2  0
  1  4  1  0
  2  5  1  0
  2  8  2  0
  2 10  1  0
  3  6  1  0
  3 11  1  0
  4  7  2  0
  4  9  1  0
  7  8  1  0
  9 10  2  0
  9 12  1  0
 11 12  2  0
M  END
$$$$

     RDKit          3D

 17 20  0  0  0  0  0  0  0  0999 V2000
  100.1207  145.9005  140.7355 N   0  0  0  0  0  0  0  0  0  0  0  0
  101.4890  146.3694  138.8882 C   0  0  0  0  0  0  0  0  0  0  0  0
  103.0898  147.3181  139.8699 C   0  0  0  0  0  0  0  0  0  0  0  0
   96.3939  143.7154  136.3691 C   0  0  0  0  0  0  0  0  0  0  0  0
  102.6833  147.0113  138.8456 N   0  0  0  0  0  0  0  0  0  0  0  0
   97.2540  144.5470  138.4193 C   0  0  0  0  0  0  0  0  0  0  0  0
   98.4641  144.7815  137.8052 C   0  0  0  0  0  0  0  0  0  0  0  0
   99.2636  145.4387  139.8132 C   0  0  0  0  0  0  0  0  0  0  0  0
  102.3534  146.9903  140.7355 N   0  0  0  0  0  0  0  0  0  0  0  0
  100.8265  145.4678  136.6897 C   0  0  0  0  0  0  0  0  0  0  0  0
  101.2505  146.4151  140.2507 C   0  0  0  0  0  0  0  0  0  0  0  0
   97.6242  143.9818  135.7786 C   0  0  0  0  0  0  0  0  0  0  0  0
   96.2303  144.0123  137.6755 C   0  0  0  0  0  0  0  0  0  0  0  0
   99.4514  145.3258  138.5159 C   0  0  0  0  0  0  0  0  0  0  0  0
  100.5787  145.6805  138.0226 C   0  0  0  0  0  0  0  0  0  0  0  0
   98.6442  144.5133  136.4754 C   0  0  0  0  0  0  0  0  0  0  0  0
   99.8234  144.8089  135.9769 C   0  0  0  0  0  0  0  0  0  0  0  0
  1  8  1  0
  1 11  2  0
  2  5  2  0
  2 11  1  0
  2 15  1  0
  3  5  1  0
  3  9  2  0
  4 12  2  0
  4 13  1  0
  6  7  1  0
  6 13  2  0
  7 14  2  0
  7 16  1  0
  8 14  1  0
  9 11  1  0
 10 15  2  0
 10 17  1  0
 12 16  1  0
 14 15  1  0
 16 17  2  0
M  END
$$$$

     RDKit          3D

 18 21  0  0  0  0  0  0  0  0999 V2000
   98.9142  145.0803  138.8008 C   0  0  0  0  0  0  0  0  0  0  0  0
   94.9953  143.0507  136.5567 N   0  0  0  0  0  0  0  0  0  0  0  0
   96.4053  144.6474  135.6268 C   0  0  0  0  0  0  0  0  0  0  0  0
  100.2081  145.1600  140.8486 N   0  0  0  0  0  0  0  0  0  0  0  0
  101.1662  145.8693  140.1838 C   0  0  0  0  0  0  0  0  0  0  0  0
   99.4063  146.2031  136.8808 O   0  0  0  0  0  0  0  0  0  0  0  0
   99.8439  145.9037  138.1741 C   0  0  0  0  0  0  0  0  0  0  0  0
   98.2635  145.5214  136.7354 C   0  0  0  0  0  0  0  0  0  0  0  0
   96.8619  143.9317  137.8440 C   0  0  0  0  0  0  0  0  0  0  0  0
  102.2900  146.1909  140.8680 C   0  0  0  0  0  0  0  0  0  0  0  0
   97.9420  144.7823  137.8366 C   0  0  0  0  0  0  0  0  0  0  0  0
  103.2736  146.8636  140.2304 C   0  0  0  0  0  0  0  0  0  0  0  0
  103.1558  147.2297  138.9312 C   0  0  0  0  0  0  0  0  0  0  0  0
  102.0369  146.8940  138.2660 C   0  0  0  0  0  0  0  0  0  0  0  0
  101.0089  146.2427  138.8422 C   0  0  0  0  0  0  0  0  0  0  0  0
   99.1147  144.7615  140.1533 C   0  0  0  0  0  0  0  0  0  0  0  0
   96.0911  143.8732  136.7013 C   0  0  0  0  0  0  0  0  0  0  0  0
   97.4817  145.4760  135.6234 C   0  0  0  0  0  0  0  0  0  0  0  0
  1  7  2  0
  1 11  1  0
  1 16  1  0
  2 17  1  0
  3 17  2  0
  3 18  1  0
  4  5  1  0
  4 16  2  0
  5 10  1  0
  5 15  2  0
  6  7  1  0
  6  8  1  0
  7 15  1  0
  8 11  1  0
  8 18  2  0
  9 11  2  0
  9 17  1  0
 10 12  2  0
 12 13  1  0
 13 14  2  0
 14 15  1  0
M  END
$$$$

     RDKit          3D

 11 11  0  0  0  0  0  0  0  0999 V2000
   96.4994  144.1012  135.4826 O   0  0  0  0  0  0  0  0  0  0  0  0
  102.7007  147.1995  139.0637 C   0  0  0  0  0  0  0  0  0  0  0  0
   97.3364  145.5318  137.2569 C   0  0  0  0  0  0  0  0  0  0  0  0
   98.8140  144.6675  135.7271 C   0  0  0  0  0  0  0  0  0  0  0  0
   97.5355  144.7686  136.1480 C   0  0  0  0  0  0  0  0  0  0  0  0
  101.5620  146.6956  138.6672 C   0  0  0  0  0  0  0  0  0  0  0  0
  103.6593  147.6300  139.3035 N   0  0  0  0  0  0  0  0  0  0  0  0
  100.6244  146.4093  138.1204 N   0  0  0  0  0  0  0  0  0  0  0  0
   99.8179  145.2001  136.4164 C   0  0  0  0  0  0  0  0  0  0  0  0
   99.5879  145.9201  137.5008 C   0  0  0  0  0  0  0  0  0  0  0  0
   98.3549  146.0962  137.9666 C   0  0  0  0  0  0  0  0  0  0  0  0
  1  5  1  0
  2  6  1  0
  2  7  3  0
  3  5  2  0
  3 11  1  0
  4  5  1  0
  4  9  2  0
  6  8  3  0
  8 10  1  0
  9 10  1  0
 10 11  2  0
M  END
$$$$

     RDKit          3D

 12 13  0  0  0  0  0  0  0  0999 V2000
  100.4865  147.1297  139.8021 C   0  0  0  0  0  0  0  0  0  0  0  0
   99.2940  146.5658  139.3331 C   0  0  0  0  0  0  0  0  0  0  0  0
   97.9647  145.2699  137.7154 C   0  0  0  0  0  0  0  0  0  0  0  0
   96.7015  143.9115  136.0409 O   0  0  0  0  0  0  0  0  0  0  0  0
  101.5907  146.2509  137.7460 C   0  0  0  0  0  0  0  0  0  0  0  0
  100.3851  145.6635  137.2925 C   0  0  0  0  0  0  0  0  0  0  0  0
  103.1281  147.6768  139.6176 Cl  0  0  0  0  0  0  0  0  0  0  0  0
  100.2876  144.9102  136.0378 C   0  0  0  0  0  0  0  0  0  0  0  0
   99.1804  145.8318  138.1273 C   0  0  0  0  0  0  0  0  0  0  0  0
   97.8366  144.5111  136.4726 C   0  0  0  0  0  0  0  0  0  0  0  0
  101.6435  146.9755  139.0328 C   0  0  0  0  0  0  0  0  0  0  0  0
   98.9928  144.3359  135.6631 C   0  0  0  0  0  0  0  0  0  0  0  0
  1  2  2  0
  1 11  1  0
  2  9  1  0
  3  9  2  0
  3 10  1  0
  4 10  1  0
  5  6  1  0
  5 11  2  0
  6  8  2  0
  6  9  1  0
  7 11  1  0
  8 12  1  0
 10 12  2  0
M  END
$$$$

     RDKit          3D

 12 13  0  0  0  0  0  0  0  0999 V2000
   99.6523  145.7386  137.7117 C   0  0  0  0  0  0  0  0  0  0  0  0
  100.7297  146.5212  139.7642 C   0  0  0  0  0  0  0  0  0  0  0  0
   98.3921  144.3992  135.9045 C   0  0  0  0  0  0  0  0  0  0  0  0
  100.8952  145.8676  137.0712 C   0  0  0  0  0  0  0  0  0  0  0  0
  101.9566  146.6243  139.1205 C   0  0  0  0  0  0  0  0  0  0  0  0
   98.4192  145.2948  137.0069 C   0  0  0  0  0  0  0  0  0  0  0  0
   99.5962  146.0993  139.0720 C   0  0  0  0  0  0  0  0  0  0  0  0
  102.0388  146.2883  137.7678 C   0  0  0  0  0  0  0  0  0  0  0  0
   96.3434  144.9263  136.5552 N   0  0  0  0  0  0  0  0  0  0  0  0
   97.1360  145.6343  137.3934 N   0  0  0  0  0  0  0  0  0  0  0  0
  103.1193  147.0614  139.8469 N   0  0  0  0  0  0  0  0  0  0  0  0
   97.0185  144.1830  135.6848 C   0  0  0  0  0  0  0  0  0  0  0  0
  1  4  1  0
  1  6  1  0
  1  7  2  0
  2  5  2  0
  2  7  1  0
  3  6  1  0
  3 12  2  0
  4  8  2  0
  5  8  1  0
  5 11  1  0
  6 10  1  0
  9 10  2  0
  9 12  1  0
M  END
$$$$

     RDKit          3D

 12 13  0  0  0  0  0  0  0  0999 V2000
  100.8730  145.6850  137.0861 C   0  0  0  0  0  0  0  0  0  0  0  0
   98.1472  144.7891  135.9453 C   0  0  0  0  0  0  0  0  0  0  0  0
  100.8799  146.7335  139.6657 C   0  0  0  0  0  0  0  0  0  0  0  0
   96.5746  143.9877  137.1712 N   0  0  0  0  0  0  0  0  0  0  0  0
  102.0354  146.2769  137.5895 C   0  0  0  0  0  0  0  0  0  0  0  0
   97.4813  144.4050  138.0172 C   0  0  0  0  0  0  0  0  0  0  0  0
  103.3255  147.3702  139.2847 N   0  0  0  0  0  0  0  0  0  0  0  0
   99.6933  145.5886  137.8619 C   0  0  0  0  0  0  0  0  0  0  0  0
   99.7042  146.1316  139.1529 C   0  0  0  0  0  0  0  0  0  0  0  0
   98.5498  144.9241  137.2336 C   0  0  0  0  0  0  0  0  0  0  0  0
   96.9296  144.2204  135.9422 N   0  0  0  0  0  0  0  0  0  0  0  0
  102.0642  146.8129  138.8778 C   0  0  0  0  0  0  0  0  0  0  0  0
  1  5  4  0
  1  8  4  0
  2 10  4  0
  2 11  4  0
  3  9  4  0
  3 12  4  0
  4  6  4  0
  4 11  4  0
  5 12  4  0
  6 10  4  0
  7 12  1  0
  8  9  4  0
  8 10  1  0
M  END
$$$$

     RDKit          3D

 22 25  0  0  0  0  0  0  0  0999 V2000
  100.5971  145.6178  141.6950 O   0  0  0  0  0  0  0  0  0  0  0  0
   98.8127  145.2851  139.3598 O   0  0  0  0  0  0  0  0  0  0  0  0
   99.4862  146.0923  137.5125 C   0  0  0  0  0  0  0  0  0  0  0  0
   97.5601  145.0716  135.9302 C   0  0  0  0  0  0  0  0  0  0  0  0
   96.6094  144.1121  137.7404 C   0  0  0  0  0  0  0  0  0  0  0  0
   96.6088  144.5713  135.1463 C   0  0  0  0  0  0  0  0  0  0  0  0
  103.5167  148.0299  139.0154 O   0  0  0  0  0  0  0  0  0  0  0  0
   98.6452  145.4150  138.0502 C   0  0  0  0  0  0  0  0  0  0  0  0
   97.6210  144.8789  137.2700 C   0  0  0  0  0  0  0  0  0  0  0  0
   99.5238  144.7919  141.3856 C   0  0  0  0  0  0  0  0  0  0  0  0
  100.9384  146.2233  140.5827 C   0  0  0  0  0  0  0  0  0  0  0  0
  102.3689  147.3567  139.1324 C   0  0  0  0  0  0  0  0  0  0  0  0
  100.1866  145.9837  139.5699 C   0  0  0  0  0  0  0  0  0  0  0  0
  101.5674  147.1332  138.1371 C   0  0  0  0  0  0  0  0  0  0  0  0
   98.5671  145.8599  135.4203 C   0  0  0  0  0  0  0  0  0  0  0  0
  102.0458  146.9020  140.3170 C   0  0  0  0  0  0  0  0  0  0  0  0
   95.6764  143.8341  135.6143 C   0  0  0  0  0  0  0  0  0  0  0  0
  100.4973  146.4376  138.3386 C   0  0  0  0  0  0  0  0  0  0  0  0
   95.6974  143.6158  136.8977 C   0  0  0  0  0  0  0  0  0  0  0  0
   94.7958  143.3274  134.8121 O   0  0  0  0  0  0  0  0  0  0  0  0
   99.5458  146.3586  136.1921 C   0  0  0  0  0  0  0  0  0  0  0  0
   94.8156  142.9808  137.2832 O   0  0  0  0  0  0  0  0  0  0  0  0
  1 10  1  0
  1 11  1  0
  2  8  1  0
  2 13  1  0
  3  8  2  0
  3 18  1  0
  3 21  1  0
  4  6  1  0
  4  9  2  0
  4 15  1  0
  5  9  1  0
  5 19  2  0
  6 17  2  0
  7 12  1  0
  8  9  1  0
 11 13  1  0
 11 16  2  0
 12 14  2  0
 12 16  1  0
 13 18  2  0
 14 18  1  0
 15 21  2  0
 17 19  1  0
 17 20  1  0
 19 22  1  0
M  END
$$$$

     RDKit          3D

 13 14  0  0  0  0  0  0  0  0999 V2000
   98.5268  144.1909  136.2218 C   0  0  0  0  0  0  0  0  0  0  0  0
  102.0801  146.2700  137.6447 C   0  0  0  0  0  0  0  0  0  0  0  0
   99.7579  145.6102  137.8630 C   0  0  0  0  0  0  0  0  0  0  0  0
   97.2997  145.4643  137.7839 C   0  0  0  0  0  0  0  0  0  0  0  0
   97.3707  143.6959  135.6926 C   0  0  0  0  0  0  0  0  0  0  0  0
  101.0661  146.3345  139.7660 C   0  0  0  0  0  0  0  0  0  0  0  0
   96.2092  144.0553  136.1773 N   0  0  0  0  0  0  0  0  0  0  0  0
   98.5070  145.0943  137.2902 C   0  0  0  0  0  0  0  0  0  0  0  0
   99.8793  145.8629  139.2271 C   0  0  0  0  0  0  0  0  0  0  0  0
  100.9118  145.8079  137.0942 C   0  0  0  0  0  0  0  0  0  0  0  0
   96.2022  144.8795  137.1534 C   0  0  0  0  0  0  0  0  0  0  0  0
  103.3802  147.0043  139.5351 N   0  0  0  0  0  0  0  0  0  0  0  0
  102.1858  146.5234  138.9775 C   0  0  0  0  0  0  0  0  0  0  0  0
  1  5  2  0
  1  8  1  0
  2 10  2  0
  2 13  1  0
  3  8  1  0
  3  9  2  0
  3 10  1  0
  4  8  2  0
  4 11  1  0
  5  7  1  0
  6  9  1  0
  6 13  2  0
  7 11  2  0
 12 13  1  0
M  END
$$$$

     RDKit          3D

 13 14  0  0  0  0  0  0  0  0999 V2000
  102.7802  146.7139  138.2960 N   0  0  0  0  0  0  0  0  0  0  0  0
   99.3698  145.3663  137.6261 C   0  0  0  0  0  0  0  0  0  0  0  0
  101.8046  146.4472  140.3890 C   0  0  0  0  0  0  0  0  0  0  0  0
  100.5801  145.9032  138.3991 C   0  0  0  0  0  0  0  0  0  0  0  0
   99.3883  145.3804  136.2656 C   0  0  0  0  0  0  0  0  0  0  0  0
   98.2400  144.8732  138.2845 C   0  0  0  0  0  0  0  0  0  0  0  0
  100.6908  146.0056  139.7887 C   0  0  0  0  0  0  0  0  0  0  0  0
  101.6893  146.2753  137.6725 C   0  0  0  0  0  0  0  0  0  0  0  0
  102.7929  146.7920  139.5867 C   0  0  0  0  0  0  0  0  0  0  0  0
   97.2261  144.4301  136.1757 C   0  0  0  0  0  0  0  0  0  0  0  0
   98.3415  144.9331  135.5810 N   0  0  0  0  0  0  0  0  0  0  0  0
   97.1511  144.3947  137.5429 C   0  0  0  0  0  0  0  0  0  0  0  0
   96.1720  143.9693  135.4286 N   0  0  0  0  0  0  0  0  0  0  0  0
  1  8  2  0
  1  9  1  0
  2  4  1  0
  2  5  2  0
  2  6  1  0
  3  7  1  0
  3  9  2  0
  4  7  2  0
  4  8  1  0
  5 11  1  0
  6 12  2  0
 10 11  2  0
 10 12  1  0
 10 13  1  0
M  END
$$$$

     RDKit          3D

  9  8  0  0  0  0  0  0  0  0999 V2000
   95.8143  143.7107  135.7170 C   0  0  0  0  0  0  0  0  0  0  0  0
   99.0421  145.6297  135.6999 C   0  0  0  0  0  0  0  0  0  0  0  0
  101.4807  146.6683  138.3405 C   0  0  0  0  0  0  0  0  0  0  0  0
   99.5223  146.1588  136.9544 C   0  0  0  0  0  0  0  0  0  0  0  0
  103.4780  147.0602  139.6798 C   0  0  0  0  0  0  0  0  0  0  0  0
   96.7217  144.8512  135.5861 C   0  0  0  0  0  0  0  0  0  0  0  0
   98.0777  144.5373  136.0071 C   0  0  0  0  0  0  0  0  0  0  0  0
  100.9388  145.9615  137.1965 C   0  0  0  0  0  0  0  0  0  0  0  0
  102.9107  146.6273  138.4272 C   0  0  0  0  0  0  0  0  0  0  0  0
  1  6  1  0
  2  4  1  0
  2  7  1  0
  3  8  1  0
  3  9  1  0
  4  8  1  0
  5  9  1  0
  6  7  1  0
M  END
$$$$

     RDKit          3D

  8  7  0  0  0  0  0  0  0  0999 V2000
  103.2025  147.1684  139.1368 C   0  0  0  0  0  0  0  0  0  0  0  0
   99.2623  145.3274  137.5930 C   0  0  0  0  0  0  0  0  0  0  0  0
  101.9400  146.6173  138.5594 C   0  0  0  0  0  0  0  0  0  0  0  0
   97.6624  144.2672  136.0854 C   0  0  0  0  0  0  0  0  0  0  0  0
   96.2878  144.3507  135.5878 C   0  0  0  0  0  0  0  0  0  0  0  0
  100.6756  146.5132  139.3551 C   0  0  0  0  0  0  0  0  0  0  0  0
   98.2305  145.5571  136.5508 C   0  0  0  0  0  0  0  0  0  0  0  0
   99.3989  146.4579  138.5648 C   0  0  0  0  0  0  0  0  0  0  0  0
  1  3  1  0
  2  7  1  0
  2  8  1  0
  3  6  1  0
  4  5  1  0
  4  7  1  0
  6  8  1  0
M  END
$$$$

     RDKit          3D

 10 10  0  0  0  0  0  0  0  0999 V2000
  102.1620  147.2855  139.2270 C   0  0  0  0  0  0  0  0  0  0  0  0
   98.3818  143.9566  135.8746 O   0  0  0  0  0  0  0  0  0  0  0  0
   99.8910  145.7424  136.7117 C   0  0  0  0  0  0  0  0  0  0  0  0
  103.6015  147.4507  139.1161 N   0  0  0  0  0  0  0  0  0  0  0  0
   96.4707  144.5646  136.5862 C   0  0  0  0  0  0  0  0  0  0  0  0
   97.0443  143.6231  135.9095 C   0  0  0  0  0  0  0  0  0  0  0  0
   97.3605  145.5207  137.0247 C   0  0  0  0  0  0  0  0  0  0  0  0
   98.5263  145.1396  136.5925 C   0  0  0  0  0  0  0  0  0  0  0  0
  101.7095  146.4868  138.0620 C   0  0  0  0  0  0  0  0  0  0  0  0
  100.2305  146.2186  138.0990 C   0  0  0  0  0  0  0  0  0  0  0  0
  1  4  1  0
  1  9  1  0
  2  6  1  0
  2  8  1  0
  3  8  1  0
  3 10  1  0
  5  6  2  0
  5  7  1  0
  7  8  2  0
  9 10  1  0
M  END
$$$$

     RDKit          3D

 12 13  0  0  0  0  0  0  0  0999 V2000
  100.9854  145.8235  137.4549 C   0  0  0  0  0  0  0  0  0  0  0  0
   99.4476  144.9360  135.9829 C   0  0  0  0  0  0  0  0  0  0  0  0
  101.8920  146.6299  139.9616 C   0  0  0  0  0  0  0  0  0  0  0  0
  100.6270  146.0413  139.7870 C   0  0  0  0  0  0  0  0  0  0  0  0
  102.7208  146.8110  138.8787 C   0  0  0  0  0  0  0  0  0  0  0  0
   97.2405  144.0797  136.7542 C   0  0  0  0  0  0  0  0  0  0  0  0
  100.1613  145.6486  138.5513 C   0  0  0  0  0  0  0  0  0  0  0  0
   98.9215  145.0774  138.3896 C   0  0  0  0  0  0  0  0  0  0  0  0
   96.7977  143.6711  135.7121 O   0  0  0  0  0  0  0  0  0  0  0  0
  102.2342  146.3747  137.6652 C   0  0  0  0  0  0  0  0  0  0  0  0
  100.6302  145.4958  136.1675 N   0  0  0  0  0  0  0  0  0  0  0  0
   98.5529  144.7191  137.0571 C   0  0  0  0  0  0  0  0  0  0  0  0
  1  7  2  0
  1 10  1  0
  1 11  1  0
  2 11  2  0
  2 12  1  0
  3  4  2  0
  3  5  1  0
  4  7  1  0
  5 10  2  0
  6  9  2  0
  6 12  1  0
  7  8  1  0
  8 12  2  0
M  END
$$$$

     RDKit          3D

 15 17  0  0  0  0  0  0  0  0999 V2000
  101.5530  146.4391  140.1662 C   0  0  0  0  0  0  0  0  0  0  0  0
   96.2493  143.9536  135.2975 O   0  0  0  0  0  0  0  0  0  0  0  0
   98.3911  144.6945  135.9508 C   0  0  0  0  0  0  0  0  0  0  0  0
   99.4811  145.6691  139.3772 N   0  0  0  0  0  0  0  0  0  0  0  0
  101.2968  145.9110  137.7671 C   0  0  0  0  0  0  0  0  0  0  0  0
  102.8713  146.8063  139.9799 C   0  0  0  0  0  0  0  0  0  0  0  0
   97.0990  144.3964  136.2639 C   0  0  0  0  0  0  0  0  0  0  0  0
   99.1919  145.1497  137.0091 C   0  0  0  0  0  0  0  0  0  0  0  0
  100.7514  145.9867  139.0992 C   0  0  0  0  0  0  0  0  0  0  0  0
  100.5059  145.5168  136.7542 N   0  0  0  0  0  0  0  0  0  0  0  0
   96.6536  144.4944  137.5414 C   0  0  0  0  0  0  0  0  0  0  0  0
  102.6214  146.3628  137.6321 C   0  0  0  0  0  0  0  0  0  0  0  0
   97.4246  144.9179  138.5724 C   0  0  0  0  0  0  0  0  0  0  0  0
   98.7265  145.2459  138.3200 C   0  0  0  0  0  0  0  0  0  0  0  0
  103.3669  146.8083  138.6962 C   0  0  0  0  0  0  0  0  0  0  0  0
  1  6  2  0
  1  9  1  0
  2  7  1  0
  3  7  2  0
  3  8  1  0
  4  9  2  0
  4 14  1  0
  5  9  1  0
  5 10  2  0
  5 12  1  0
  6 15  1  0
  7 11  1  0
  8 10  1  0
  8 14  2  0
 11 13  2  0
 12 15  2  0
 13 14  1  0
M  END
$$$$

     RDKit          3D

 10 10  0  0  0  0  0  0  0  0999 V2000
   99.4815  144.7374  136.3481 C   0  0  0  0  0  0  0  0  0  0  0  0
   97.0684  145.3627  137.3518 C   0  0  0  0  0  0  0  0  0  0  0  0
  100.4493  146.2060  137.9072 C   0  0  0  0  0  0  0  0  0  0  0  0
   98.3160  144.1793  135.8530 C   0  0  0  0  0  0  0  0  0  0  0  0
  102.4564  147.0612  138.9736 C   0  0  0  0  0  0  0  0  0  0  0  0
  101.4016  146.6463  138.3862 C   0  0  0  0  0  0  0  0  0  0  0  0
   98.2006  145.8590  137.8661 C   0  0  0  0  0  0  0  0  0  0  0  0
   97.0547  144.5098  136.2960 C   0  0  0  0  0  0  0  0  0  0  0  0
  103.4213  147.4390  139.4369 N   0  0  0  0  0  0  0  0  0  0  0  0
   99.4035  145.6127  137.3783 C   0  0  0  0  0  0  0  0  0  0  0  0
  1  4  2  0
  1 10  1  0
  2  7  1  0
  2  8  2  0
  3  6  1  0
  3 10  1  0
  4  8  1  0
  5  6  1  0
  5  9  3  0
  7 10  2  0
M  END
$$$$

     RDKit          3D

 17 19  0  0  0  0  0  0  0  0999 V2000
   99.9171  145.3590  137.0623 O   0  0  0  0  0  0  0  0  0  0  0  0
   95.8997  143.4313  135.3463 O   0  0  0  0  0  0  0  0  0  0  0  0
  102.0313  146.7808  140.3669 C   0  0  0  0  0  0  0  0  0  0  0  0
  103.9586  147.7602  138.9280 Cl  0  0  0  0  0  0  0  0  0  0  0  0
   96.2172  143.7428  137.6598 C   0  0  0  0  0  0  0  0  0  0  0  0
  101.8633  146.4640  137.9597 C   0  0  0  0  0  0  0  0  0  0  0  0
  100.6030  145.8300  138.1521 C   0  0  0  0  0  0  0  0  0  0  0  0
   98.5051  145.2350  140.6679 O   0  0  0  0  0  0  0  0  0  0  0  0
   97.9450  144.4197  136.1647 C   0  0  0  0  0  0  0  0  0  0  0  0
   98.9324  145.1308  139.6376 C   0  0  0  0  0  0  0  0  0  0  0  0
   96.6827  143.8904  136.3310 C   0  0  0  0  0  0  0  0  0  0  0  0
  100.7998  146.1855  140.5623 C   0  0  0  0  0  0  0  0  0  0  0  0
   96.9666  144.1897  138.7224 C   0  0  0  0  0  0  0  0  0  0  0  0
  100.1029  145.6884  139.4499 C   0  0  0  0  0  0  0  0  0  0  0  0
   98.2348  144.7414  138.5620 C   0  0  0  0  0  0  0  0  0  0  0  0
  102.5533  146.9535  139.0752 C   0  0  0  0  0  0  0  0  0  0  0  0
   98.6971  144.8582  137.2442 C   0  0  0  0  0  0  0  0  0  0  0  0
  1  7  1  0
  1 17  1  0
  2 11  1  0
  3 12  2  0
  3 16  1  0
  4 16  1  0
  5 11  2  0
  5 13  1  0
  6  7  1  0
  6 16  2  0
  7 14  2  0
  8 10  2  0
  9 11  1  0
  9 17  2  0
 10 14  1  0
 10 15  1  0
 12 14  1  0
 13 15  2  0
 15 17  1  0
M  END
$$$$

     RDKit          3D

 13 14  0  0  0  0  0  0  0  0999 V2000
   97.2009  144.3130  136.4314 C   0  0  0  0  0  0  0  0  0  0  0  0
  101.2134  146.6637  140.3153 N   0  0  0  0  0  0  0  0  0  0  0  0
   99.3383  145.4345  137.7498 C   0  0  0  0  0  0  0  0  0  0  0  0
   97.0067  144.9694  137.6303 C   0  0  0  0  0  0  0  0  0  0  0  0
  103.3645  147.3026  139.5893 N   0  0  0  0  0  0  0  0  0  0  0  0
   96.1922  143.6788  135.7817 O   0  0  0  0  0  0  0  0  0  0  0  0
  100.4279  146.0264  138.4248 C   0  0  0  0  0  0  0  0  0  0  0  0
   98.4638  144.1759  135.9087 C   0  0  0  0  0  0  0  0  0  0  0  0
  102.1397  146.8421  139.3717 C   0  0  0  0  0  0  0  0  0  0  0  0
   99.5225  144.7508  136.5836 C   0  0  0  0  0  0  0  0  0  0  0  0
   98.0564  145.5410  138.2930 C   0  0  0  0  0  0  0  0  0  0  0  0
  101.6566  146.4220  138.0148 C   0  0  0  0  0  0  0  0  0  0  0  0
  100.2092  146.2153  139.7619 N   0  0  0  0  0  0  0  0  0  0  0  0
  1  4  4  0
  1  6  1  0
  1  8  4  0
  2  9  4  0
  2 13  4  0
  3  7  1  0
  3 10  4  0
  3 11  4  0
  4 11  4  0
  5  9  1  0
  7 12  4  0
  7 13  4  0
  8 10  4  0
  9 12  4  0
M  END
$$$$

     RDKit          3D

 30 35  0  0  0  0  0  0  0  0999 V2000
   98.2776  144.1533  141.8777 C   0  0  0  0  0  0  0  0  0  0  0  0
   99.0760  144.0024  146.0080 C   0  0  0  0  0  0  0  0  0  0  0  0
   96.9223  143.7552  139.8507 C   0  0  0  0  0  0  0  0  0  0  0  0
  100.3432  145.9029  139.7078 C   0  0  0  0  0  0  0  0  0  0  0  0
   96.7463  143.8208  138.4943 C   0  0  0  0  0  0  0  0  0  0  0  0
   97.5850  144.4833  136.3121 C   0  0  0  0  0  0  0  0  0  0  0  0
  100.1165  143.6723  146.6234 O   0  0  0  0  0  0  0  0  0  0  0  0
  102.5667  146.7044  140.2695 C   0  0  0  0  0  0  0  0  0  0  0  0
   95.6255  143.1055  136.5456 C   0  0  0  0  0  0  0  0  0  0  0  0
  101.3908  145.3645  141.8892 O   0  0  0  0  0  0  0  0  0  0  0  0
  102.6117  147.2441  139.0042 C   0  0  0  0  0  0  0  0  0  0  0  0
   97.2664  143.9930  142.7740 C   0  0  0  0  0  0  0  0  0  0  0  0
  101.4217  145.9948  140.6145 C   0  0  0  0  0  0  0  0  0  0  0  0
   97.9720  144.6001  146.7879 O   0  0  0  0  0  0  0  0  0  0  0  0
   99.4585  146.2296  137.7210 O   0  0  0  0  0  0  0  0  0  0  0  0
   98.8789  145.1013  139.6217 C   0  0  0  0  0  0  0  0  0  0  0  0
  101.5812  147.1125  138.1962 C   0  0  0  0  0  0  0  0  0  0  0  0
   98.6112  145.2786  138.3013 C   0  0  0  0  0  0  0  0  0  0  0  0
  100.4617  146.4526  138.4898 C   0  0  0  0  0  0  0  0  0  0  0  0
   99.8501  143.9389  143.7241 C   0  0  0  0  0  0  0  0  0  0  0  0
   96.5211  143.7640  135.6894 C   0  0  0  0  0  0  0  0  0  0  0  0
   97.6480  144.5792  137.7210 C   0  0  0  0  0  0  0  0  0  0  0  0
   95.7098  143.1754  137.9069 C   0  0  0  0  0  0  0  0  0  0  0  0
   99.5835  144.0957  142.4327 C   0  0  0  0  0  0  0  0  0  0  0  0
   98.7909  144.0087  135.8628 O   0  0  0  0  0  0  0  0  0  0  0  0
  103.7240  147.8777  138.5580 F   0  0  0  0  0  0  0  0  0  0  0  0
  100.6551  144.1538  141.6452 N   0  0  0  0  0  0  0  0  0  0  0  0
   97.5818  143.7988  144.1611 C   0  0  0  0  0  0  0  0  0  0  0  0
   98.0289  144.4070  140.4501 C   0  0  0  0  0  0  0  0  0  0  0  0
   98.8169  143.8940  144.5670 C   0  0  0  0  0  0  0  0  0  0  0  0
  1 12  2  0
  1 24  1  0
  1 29  1  0
  2  7  1  0
  2 14  2  0
  2 30  1  0
  3  5  2  0
  3 29  1  0
  4 13  2  0
  4 16  1  0
  4 19  1  0
  5 22  1  0
  5 23  1  0
  6 21  2  0
  6 22  1  0
  6 25  1  0
  8 11  2  0
  8 13  1  0
  9 21  1  0
  9 23  2  0
 10 13  1  0
 10 27  1  0
 11 17  1  0
 11 26  1  0
 12 28  1  0
 15 18  1  0
 15 19  1  0
 16 18  1  0
 16 29  2  0
 17 19  2  0
 18 22  2  0
 20 24  2  0
 20 30  1  0
 24 27  1  0
 28 30  2  0
M  END
$$$$

     RDKit          3D

 12 13  0  0  0  0  0  0  0  0999 V2000
   96.9151  144.3961  136.2599 C   0  0  0  0  0  0  0  0  0  0  0  0
   98.8461  145.5714  137.9818 C   0  0  0  0  0  0  0  0  0  0  0  0
   99.8072  146.1566  138.8060 C   0  0  0  0  0  0  0  0  0  0  0  0
   97.5404  145.2980  138.4309 C   0  0  0  0  0  0  0  0  0  0  0  0
   99.1891  145.2044  136.6268 C   0  0  0  0  0  0  0  0  0  0  0  0
  101.4580  146.0626  137.0134 C   0  0  0  0  0  0  0  0  0  0  0  0
  102.9450  147.6073  139.7787 N   0  0  0  0  0  0  0  0  0  0  0  0
  100.4941  145.4737  136.1744 C   0  0  0  0  0  0  0  0  0  0  0  0
   96.6036  144.7176  137.5844 C   0  0  0  0  0  0  0  0  0  0  0  0
  101.0894  146.4230  138.3130 C   0  0  0  0  0  0  0  0  0  0  0  0
   98.2277  144.6078  135.8132 C   0  0  0  0  0  0  0  0  0  0  0  0
  102.1237  147.0276  139.1696 C   0  0  0  0  0  0  0  0  0  0  0  0
  1  9  2  0
  1 11  1  0
  2  3  1  0
  2  4  2  0
  2  5  1  0
  3 10  2  0
  4  9  1  0
  5  8  1  0
  5 11  2  0
  6  8  2  0
  6 10  1  0
  7 12  3  0
 10 12  1  0
M  END
$$$$

     RDKit          3D

  9  8  0  0  0  0  0  0  0  0999 V2000
   99.0541  145.5242  136.4806 C   0  0  0  0  0  0  0  0  0  0  0  0
  100.8508  146.1691  138.1733 C   0  0  0  0  0  0  0  0  0  0  0  0
  101.3455  146.1201  139.6046 C   0  0  0  0  0  0  0  0  0  0  0  0
  103.6887  146.7884  139.4411 N   0  0  0  0  0  0  0  0  0  0  0  0
   96.7340  144.7401  135.7375 C   0  0  0  0  0  0  0  0  0  0  0  0
   95.9225  143.5320  135.6671 C   0  0  0  0  0  0  0  0  0  0  0  0
   99.5295  145.5504  137.8929 C   0  0  0  0  0  0  0  0  0  0  0  0
   98.1237  144.4181  136.2205 C   0  0  0  0  0  0  0  0  0  0  0  0
  102.3984  146.7794  139.9204 C   0  0  0  0  0  0  0  0  0  0  0  0
  1  7  1  0
  1  8  1  0
  2  3  1  0
  2  7  1  0
  3  9  1  0
  4  9  1  0
  5  6  1  0
  5  8  1  0
M  END
$$$$

     RDKit          3D

 11 11  0  0  0  0  0  0  0  0999 V2000
   99.7116  145.2401  136.1287 C   0  0  0  0  0  0  0  0  0  0  0  0
   98.8777  145.4670  138.3561 C   0  0  0  0  0  0  0  0  0  0  0  0
  103.2865  147.4402  138.9694 N   0  0  0  0  0  0  0  0  0  0  0  0
  102.4568  146.9070  139.7788 N   0  0  0  0  0  0  0  0  0  0  0  0
   99.8738  145.6673  137.4408 C   0  0  0  0  0  0  0  0  0  0  0  0
   96.3273  143.6395  136.3078 O   0  0  0  0  0  0  0  0  0  0  0  0
   97.6632  144.8054  137.9763 C   0  0  0  0  0  0  0  0  0  0  0  0
   98.4105  144.5211  135.7560 C   0  0  0  0  0  0  0  0  0  0  0  0
   97.4559  144.3379  136.6871 C   0  0  0  0  0  0  0  0  0  0  0  0
  101.2151  146.6980  139.2147 C   0  0  0  0  0  0  0  0  0  0  0  0
  101.1104  146.2929  137.8956 C   0  0  0  0  0  0  0  0  0  0  0  0
  1  5  2  0
  1  8  1  0
  2  5  1  0
  2  7  2  0
  3  4  1  0
  4 10  1  0
  5 11  1  0
  6  9  1  0
  7  9  1  0
  8  9  2  0
 10 11  1  0
M  END
$$$$

     RDKit          3D

 12 13  0  0  0  0  0  0  0  0999 V2000
   97.1386  143.7899  136.0384 N   0  0  0  0  0  0  0  0  0  0  0  0
  102.0888  146.4412  138.8183 C   0  0  0  0  0  0  0  0  0  0  0  0
  100.8889  145.6078  136.9788 C   0  0  0  0  0  0  0  0  0  0  0  0
   96.5343  144.3382  137.0149 N   0  0  0  0  0  0  0  0  0  0  0  0
   99.8573  145.6552  139.0909 C   0  0  0  0  0  0  0  0  0  0  0  0
   99.7966  145.3464  137.7728 C   0  0  0  0  0  0  0  0  0  0  0  0
   97.3677  145.0030  137.8045 N   0  0  0  0  0  0  0  0  0  0  0  0
   98.4423  144.0787  136.1313 C   0  0  0  0  0  0  0  0  0  0  0  0
   98.5652  144.8117  137.2185 C   0  0  0  0  0  0  0  0  0  0  0  0
  102.0318  146.1389  137.4845 C   0  0  0  0  0  0  0  0  0  0  0  0
  103.2035  146.9837  139.3732 N   0  0  0  0  0  0  0  0  0  0  0  0
  101.0010  146.1951  139.6044 C   0  0  0  0  0  0  0  0  0  0  0  0
  1  4  1  0
  1  8  2  0
  2 10  2  0
  2 11  1  0
  2 12  1  0
  3  6  2  0
  3 10  1  0
  4  7  1  0
  5  6  1  0
  5 12  2  0
  6  9  1  0
  7  9  2  0
  8  9  1  0
M  END
$$$$

     RDKit          3D

 17 19  0  0  0  0  0  0  0  0999 V2000
  100.6246  146.2516  138.9872 C   0  0  0  0  0  0  0  0  0  0  0  0
   99.2999  145.9620  139.2458 N   0  0  0  0  0  0  0  0  0  0  0  0
   95.4480  144.0693  137.7351 C   0  0  0  0  0  0  0  0  0  0  0  0
  101.5474  146.9256  139.7089 C   0  0  0  0  0  0  0  0  0  0  0  0
   97.7447  144.7350  137.6471 C   0  0  0  0  0  0  0  0  0  0  0  0
  102.7934  147.0423  139.1545 C   0  0  0  0  0  0  0  0  0  0  0  0
  100.9885  145.7460  137.7786 C   0  0  0  0  0  0  0  0  0  0  0  0
   98.9401  145.2775  138.1332 C   0  0  0  0  0  0  0  0  0  0  0  0
  103.7304  147.6689  139.7805 F   0  0  0  0  0  0  0  0  0  0  0  0
   97.8520  144.0973  136.4891 C   0  0  0  0  0  0  0  0  0  0  0  0
  102.1839  145.8972  137.2607 C   0  0  0  0  0  0  0  0  0  0  0  0
   96.8982  143.5248  135.8521 N   0  0  0  0  0  0  0  0  0  0  0  0
   99.5564  144.4098  135.9813 C   0  0  0  0  0  0  0  0  0  0  0  0
  103.1195  146.5522  137.9490 C   0  0  0  0  0  0  0  0  0  0  0  0
   95.6848  143.4654  136.5317 C   0  0  0  0  0  0  0  0  0  0  0  0
   96.5296  144.6763  138.4013 C   0  0  0  0  0  0  0  0  0  0  0  0
   99.9194  145.1645  137.2545 N   0  0  0  0  0  0  0  0  0  0  0  0
  1  2  1  0
  1  4  2  0
  1  7  1  0
  2  8  2  0
  3 15  2  0
  3 16  1  0
  4  6  1  0
  5  8  1  0
  5 10  1  0
  5 16  2  0
  6  9  1  0
  6 14  2  0
  7 11  2  0
  7 17  1  0
  8 17  1  0
 10 12  2  0
 11 14  1  0
 12 15  1  0
 13 17  1  0
M  END
$$$$

     RDKit          3D

 10 10  0  0  0  0  0  0  0  0999 V2000
   97.9171  144.4646  136.3783 C   0  0  0  0  0  0  0  0  0  0  0  0
   99.9600  145.7797  137.5876 C   0  0  0  0  0  0  0  0  0  0  0  0
   96.8098  143.7552  135.7477 O   0  0  0  0  0  0  0  0  0  0  0  0
  102.0419  146.8894  138.7458 C   0  0  0  0  0  0  0  0  0  0  0  0
  100.2071  145.0915  136.4032 C   0  0  0  0  0  0  0  0  0  0  0  0
   99.1512  144.4329  135.7909 C   0  0  0  0  0  0  0  0  0  0  0  0
  101.1211  146.4135  138.2016 C   0  0  0  0  0  0  0  0  0  0  0  0
   98.7031  145.8106  138.1781 C   0  0  0  0  0  0  0  0  0  0  0  0
   97.6488  145.1368  137.5549 C   0  0  0  0  0  0  0  0  0  0  0  0
  103.1971  147.4783  139.4550 C   0  0  0  0  0  0  0  0  0  0  0  0
  1  3  1  0
  1  6  2  0
  1  9  1  0
  2  5  2  0
  2  7  1  0
  2  8  1  0
  4  7  3  0
  4 10  1  0
  5  6  1  0
  8  9  2  0
M  END
$$$$

     RDKit          3D

 12 13  0  0  0  0  0  0  0  0999 V2000
   97.1912  143.7056  135.6144 O   0  0  0  0  0  0  0  0  0  0  0  0
  102.1260  146.3049  138.0185 C   0  0  0  0  0  0  0  0  0  0  0  0
   97.3991  144.7064  137.7762 C   0  0  0  0  0  0  0  0  0  0  0  0
  100.2337  146.3423  139.5141 C   0  0  0  0  0  0  0  0  0  0  0  0
   99.2923  144.6340  136.2803 C   0  0  0  0  0  0  0  0  0  0  0  0
   99.4381  145.6635  138.5142 C   0  0  0  0  0  0  0  0  0  0  0  0
  101.3720  145.6512  137.0342 C   0  0  0  0  0  0  0  0  0  0  0  0
  100.0198  145.2986  137.2603 C   0  0  0  0  0  0  0  0  0  0  0  0
   98.1261  145.3505  138.7492 C   0  0  0  0  0  0  0  0  0  0  0  0
   97.9751  144.3521  136.5630 C   0  0  0  0  0  0  0  0  0  0  0  0
  101.5991  146.6666  139.2569 C   0  0  0  0  0  0  0  0  0  0  0  0
  102.5048  147.2190  140.1060 O   0  0  0  0  0  0  0  0  0  0  0  0
  1 10  1  0
  2  7  2  0
  2 11  1  0
  3  9  1  0
  3 10  2  0
  4  6  1  0
  4 11  2  0
  5  8  2  0
  5 10  1  0
  6  8  1  0
  6  9  2  0
  7  8  1  0
 11 12  1  0
M  END
$$$$

     RDKit          3D

 13 14  0  0  0  0  0  0  0  0999 V2000
  100.7872  146.0428  137.6134 C   0  0  0  0  0  0  0  0  0  0  0  0
   97.3795  145.1339  138.1350 C   0  0  0  0  0  0  0  0  0  0  0  0
  101.9018  146.4571  138.1742 N   0  0  0  0  0  0  0  0  0  0  0  0
   98.4481  145.4849  137.5093 C   0  0  0  0  0  0  0  0  0  0  0  0
   97.3710  144.9227  135.6188 C   0  0  0  0  0  0  0  0  0  0  0  0
   99.5521  146.4367  139.5161 C   0  0  0  0  0  0  0  0  0  0  0  0
   99.6188  145.9979  138.2301 C   0  0  0  0  0  0  0  0  0  0  0  0
   96.3278  144.6853  137.5810 N   0  0  0  0  0  0  0  0  0  0  0  0
   98.4483  145.3669  136.1716 C   0  0  0  0  0  0  0  0  0  0  0  0
  103.0336  147.2657  139.9757 N   0  0  0  0  0  0  0  0  0  0  0  0
   96.4194  144.6252  136.3460 C   0  0  0  0  0  0  0  0  0  0  0  0
  100.6983  146.8749  140.1270 C   0  0  0  0  0  0  0  0  0  0  0  0
  101.8847  146.8777  139.4354 C   0  0  0  0  0  0  0  0  0  0  0  0
  1  3  2  0
  1  7  1  0
  2  4  2  0
  2  8  1  0
  3 13  1  0
  4  7  1  0
  4  9  1  0
  5  9  2  0
  5 11  1  0
  6  7  2  0
  6 12  1  0
  8 11  2  0
 10 13  1  0
 12 13  2  0
M  END
$$$$
